4
     RDKit          3D

 48 50  0  0  0  0  0  0  0  0999 V2000
    0.0229   -1.8563    2.2670 O   0  0  0  0  0  0  0  0  0  0  0  0
   -0.3265   -1.4586    1.1637 C   0  0  0  0  0  0  0  0  0  0  0  0
   -1.4695   -0.7271    0.9514 N   0  0  0  0  0  0  0  0  0  0  0  0
   -2.2812   -0.2912    2.0634 C   0  0  0  0  0  0  0  0  0  0  0  0
   -3.5193    0.4083    1.5725 C   0  0  0  0  0  0  0  0  0  0  0  0
   -4.6667   -0.3271    1.2442 C   0  0  0  0  0  0  0  0  0  0  0  0
   -5.8052    0.3177    0.7586 C   0  0  0  0  0  0  0  0  0  0  0  0
   -5.8048    1.7011    0.5890 C   0  0  0  0  0  0  0  0  0  0  0  0
   -4.6657    2.4410    0.9013 C   0  0  0  0  0  0  0  0  0  0  0  0
   -3.5260    1.7981    1.3870 C   0  0  0  0  0  0  0  0  0  0  0  0
    0.5105   -1.7623   -0.0240 C   0  0  0  0  0  0  0  0  0  0  0  0
    0.6428   -0.8056   -1.0396 C   0  0  0  0  0  0  0  0  0  0  0  0
   -0.0347    0.3517   -0.9693 F   0  0  0  0  0  0  0  0  0  0  0  0
    1.4860   -1.0048   -2.1395 C   0  0  0  0  0  0  0  0  0  0  0  0
    1.6407    0.0706   -3.1816 C   0  0  0  0  0  0  0  0  0  0  0  0
    3.1154    1.0377   -2.8947 S   0  0  0  0  0  6  0  0  0  0  0  0
    2.9553    1.6537   -1.2346 C   0  0  0  0  0  0  0  0  0  0  0  0
    2.1728    2.7875   -0.9974 C   0  0  0  0  0  0  0  0  0  0  0  0
    2.0276    3.2565    0.3077 C   0  0  0  0  0  0  0  0  0  0  0  0
    2.6683    2.6019    1.3613 C   0  0  0  0  0  0  0  0  0  0  0  0
    3.4672    1.4841    1.1145 C   0  0  0  0  0  0  0  0  0  0  0  0
    3.6218    1.0103   -0.1876 C   0  0  0  0  0  0  0  0  0  0  0  0
    3.0631    2.1905   -3.7767 O   0  0  0  0  0  0  0  0  0  0  0  0
    4.2669    0.1529   -2.9306 O   0  0  0  0  0  0  0  0  0  0  0  0
    2.1984   -2.2036   -2.2251 C   0  0  0  0  0  0  0  0  0  0  0  0
    2.0653   -3.1736   -1.2292 C   0  0  0  0  0  0  0  0  0  0  0  0
    1.2188   -2.9739   -0.1194 C   0  0  0  0  0  0  0  0  0  0  0  0
    1.0920   -4.0688    0.9160 C   0  0  0  0  0  0  0  0  0  0  0  0
    1.5627   -5.2654    0.4454 F   0  0  0  0  0  0  0  0  0  0  0  0
   -0.1921   -4.3291    1.2805 F   0  0  0  0  0  0  0  0  0  0  0  0
    1.8070   -3.8337    2.0462 F   0  0  0  0  0  0  0  0  0  0  0  0
   -1.6247   -0.2786    0.0567 H   0  0  0  0  0  0  0  0  0  0  0  0
   -2.5410   -1.1594    2.6807 H   0  0  0  0  0  0  0  0  0  0  0  0
   -1.6790    0.3767    2.6907 H   0  0  0  0  0  0  0  0  0  0  0  0
   -4.6771   -1.4085    1.3664 H   0  0  0  0  0  0  0  0  0  0  0  0
   -6.6927   -0.2597    0.5125 H   0  0  0  0  0  0  0  0  0  0  0  0
   -6.6926    2.2025    0.2125 H   0  0  0  0  0  0  0  0  0  0  0  0
   -4.6655    3.5196    0.7669 H   0  0  0  0  0  0  0  0  0  0  0  0
   -2.6422    2.3874    1.6224 H   0  0  0  0  0  0  0  0  0  0  0  0
    1.7272   -0.3699   -4.1806 H   0  0  0  0  0  0  0  0  0  0  0  0
    0.7853    0.7535   -3.1957 H   0  0  0  0  0  0  0  0  0  0  0  0
    1.6784    3.3084   -1.8142 H   0  0  0  0  0  0  0  0  0  0  0  0
    1.4196    4.1360    0.5061 H   0  0  0  0  0  0  0  0  0  0  0  0
    2.5534    2.9698    2.3786 H   0  0  0  0  0  0  0  0  0  0  0  0
    3.9722    0.9858    1.9391 H   0  0  0  0  0  0  0  0  0  0  0  0
    4.2534    0.1439   -0.3715 H   0  0  0  0  0  0  0  0  0  0  0  0
    2.8758   -2.3902   -3.0592 H   0  0  0  0  0  0  0  0  0  0  0  0
    2.6352   -4.0999   -1.3220 H   0  0  0  0  0  0  0  0  0  0  0  0
  1  2  2  0
  2  3  1  0
  3  4  1  0
  4  5  1  0
  5  6  2  0
  6  7  1  0
  7  8  2  0
  8  9  1  0
  9 10  2  0
  2 11  1  0
 11 12  2  0
 12 13  1  0
 12 14  1  0
 14 15  1  0
 15 16  1  0
 16 17  1  0
 17 18  2  0
 18 19  1  0
 19 20  2  0
 20 21  1  0
 21 22  2  0
 16 23  2  0
 16 24  2  0
 14 25  2  0
 25 26  1  0
 26 27  2  0
 27 28  1  0
 28 29  1  0
 28 30  1  0
 28 31  1  0
 10  5  1  0
 27 11  1  0
 22 17  1  0
  3 32  1  0
  4 33  1  0
  4 34  1  0
  6 35  1  0
  7 36  1  0
  8 37  1  0
  9 38  1  0
 10 39  1  0
 15 40  1  0
 15 41  1  0
 18 42  1  0
 19 43  1  0
 20 44  1  0
 21 45  1  0
 22 46  1  0
 25 47  1  0
 26 48  1  0
M  END
$$$$
