6
     RDKit          3D

 55 58  0  0  0  0  0  0  0  0999 V2000
   -1.0346    4.0721   -0.2835 O   0  0  0  0  0  0  0  0  0  0  0  0
   -0.6143    2.9743    0.0548 C   0  0  0  0  0  0  0  0  0  0  0  0
   -1.2756    1.7635   -0.0059 N   0  0  0  0  0  0  0  0  0  0  0  0
   -2.5907    1.5267   -0.4593 C   0  0  0  0  0  0  0  0  0  0  0  0
   -3.4605    2.5287   -0.8859 C   0  0  0  0  0  0  0  0  0  0  0  0
   -4.7477    2.2061   -1.3203 C   0  0  0  0  0  0  0  0  0  0  0  0
   -5.1749    0.8781   -1.3308 C   0  0  0  0  0  0  0  0  0  0  0  0
   -4.3247   -0.1522   -0.9054 C   0  0  0  0  0  0  0  0  0  0  0  0
   -4.7702   -1.5554   -0.9134 C   0  0  0  0  0  0  0  0  0  0  0  0
   -5.2811   -2.1459   -2.0814 C   0  0  0  0  0  0  0  0  0  0  0  0
   -5.7026   -3.4783   -2.0906 C   0  0  0  0  0  0  0  0  0  0  0  0
   -5.6211   -4.2434   -0.9299 C   0  0  0  0  0  0  0  0  0  0  0  0
   -5.1187   -3.6775    0.2390 C   0  0  0  0  0  0  0  0  0  0  0  0
   -4.6968   -2.3452    0.2463 C   0  0  0  0  0  0  0  0  0  0  0  0
   -3.0320    0.1945   -0.4708 C   0  0  0  0  0  0  0  0  0  0  0  0
    0.7613    2.9163    0.6062 C   0  0  0  0  0  0  0  0  0  0  0  0
    1.6277    1.9088    0.1684 C   0  0  0  0  0  0  0  0  0  0  0  0
    1.2066    1.0000   -0.7253 F   0  0  0  0  0  0  0  0  0  0  0  0
    2.9416    1.8124    0.6386 C   0  0  0  0  0  0  0  0  0  0  0  0
    3.8157    0.6718    0.1920 C   0  0  0  0  0  0  0  0  0  0  0  0
    3.5284   -0.7191    1.2847 S   0  0  0  0  0  6  0  0  0  0  0  0
    4.4774   -2.0119    0.5148 C   0  0  0  0  0  0  0  0  0  0  0  0
    3.8889   -2.7911   -0.4855 C   0  0  0  0  0  0  0  0  0  0  0  0
    4.6326   -3.8053   -1.0879 C   0  0  0  0  0  0  0  0  0  0  0  0
    5.9481   -4.0414   -0.6845 C   0  0  0  0  0  0  0  0  0  0  0  0
    6.5237   -3.2704    0.3272 C   0  0  0  0  0  0  0  0  0  0  0  0
    5.7878   -2.2537    0.9355 C   0  0  0  0  0  0  0  0  0  0  0  0
    2.1326   -1.1134    1.2124 O   0  0  0  0  0  0  0  0  0  0  0  0
    4.1495   -0.4338    2.5660 O   0  0  0  0  0  0  0  0  0  0  0  0
    3.3966    2.7635    1.5557 C   0  0  0  0  0  0  0  0  0  0  0  0
    2.5456    3.7838    1.9896 C   0  0  0  0  0  0  0  0  0  0  0  0
    1.2153    3.8721    1.5314 C   0  0  0  0  0  0  0  0  0  0  0  0
    0.3192    4.9704    2.0555 C   0  0  0  0  0  0  0  0  0  0  0  0
    0.1712    6.0068    1.1903 F   0  0  0  0  0  0  0  0  0  0  0  0
   -0.9232    4.5420    2.4039 F   0  0  0  0  0  0  0  0  0  0  0  0
    0.8230    5.5337    3.1966 F   0  0  0  0  0  0  0  0  0  0  0  0
   -0.7598    0.9369    0.2783 H   0  0  0  0  0  0  0  0  0  0  0  0
   -3.1705    3.5745   -0.8895 H   0  0  0  0  0  0  0  0  0  0  0  0
   -5.4192    2.9961   -1.6470 H   0  0  0  0  0  0  0  0  0  0  0  0
   -6.1865    0.6528   -1.6625 H   0  0  0  0  0  0  0  0  0  0  0  0
   -5.3436   -1.5688   -3.0019 H   0  0  0  0  0  0  0  0  0  0  0  0
   -6.0924   -3.9170   -3.0054 H   0  0  0  0  0  0  0  0  0  0  0  0
   -5.9498   -5.2792   -0.9360 H   0  0  0  0  0  0  0  0  0  0  0  0
   -5.0572   -4.2701    1.1480 H   0  0  0  0  0  0  0  0  0  0  0  0
   -4.3192   -1.9195    1.1740 H   0  0  0  0  0  0  0  0  0  0  0  0
   -2.3594   -0.5988   -0.1500 H   0  0  0  0  0  0  0  0  0  0  0  0
    3.5756    0.3685   -0.8315 H   0  0  0  0  0  0  0  0  0  0  0  0
    4.8762    0.9372    0.2417 H   0  0  0  0  0  0  0  0  0  0  0  0
    2.8588   -2.6247   -0.7941 H   0  0  0  0  0  0  0  0  0  0  0  0
    4.1853   -4.4199   -1.8659 H   0  0  0  0  0  0  0  0  0  0  0  0
    6.5231   -4.8378   -1.1521 H   0  0  0  0  0  0  0  0  0  0  0  0
    7.5438   -3.4704    0.6472 H   0  0  0  0  0  0  0  0  0  0  0  0
    6.2390   -1.6692    1.7343 H   0  0  0  0  0  0  0  0  0  0  0  0
    4.4087    2.7117    1.9562 H   0  0  0  0  0  0  0  0  0  0  0  0
    2.9231    4.5101    2.7113 H   0  0  0  0  0  0  0  0  0  0  0  0
  1  2  2  0
  2  3  1  0
  3  4  1  0
  4  5  2  0
  5  6  1  0
  6  7  2  0
  7  8  1  0
  8  9  1  0
  9 10  2  0
 10 11  1  0
 11 12  2  0
 12 13  1  0
 13 14  2  0
  8 15  2  0
  2 16  1  0
 16 17  2  0
 17 18  1  0
 17 19  1  0
 19 20  1  0
 20 21  1  0
 21 22  1  0
 22 23  2  0
 23 24  1  0
 24 25  2  0
 25 26  1  0
 26 27  2  0
 21 28  2  0
 21 29  2  0
 19 30  2  0
 30 31  1  0
 31 32  2  0
 32 33  1  0
 33 34  1  0
 33 35  1  0
 33 36  1  0
 15  4  1  0
 14  9  1  0
 32 16  1  0
 27 22  1  0
  3 37  1  0
  5 38  1  0
  6 39  1  0
  7 40  1  0
 10 41  1  0
 11 42  1  0
 12 43  1  0
 13 44  1  0
 14 45  1  0
 15 46  1  0
 20 47  1  0
 20 48  1  0
 23 49  1  0
 24 50  1  0
 25 51  1  0
 26 52  1  0
 27 53  1  0
 30 54  1  0
 31 55  1  0
M  END
$$$$
