AGAN230
     RDKit          3D

 36 40  0  0  0  0  0  0  0  0999 V2000
    1.8045   -0.5331   -2.4000 O   0  0  0  0  0  1  0  0  0  0  0  0
    1.3454   -1.6587   -2.0317 C   0  0  0  0  0  0  0  0  0  0  0  0
    0.8200   -2.5301   -2.7926 O   0  0  0  0  0  0  0  0  0  0  0  0
    1.3637   -1.9543   -0.5665 C   0  0  0  0  0  0  0  0  0  0  0  0
    1.0726   -3.2320   -0.0863 C   0  0  0  0  0  3  0  0  0  0  0  0
    0.9935   -3.4728    1.2832 C   0  0  0  0  0  3  0  0  0  0  0  0
    1.1674   -2.4255    2.1855 C   0  0  0  0  0  3  0  0  0  0  0  0
    1.4485   -1.1333    1.7336 C   0  0  0  0  0  0  0  0  0  0  0  0
    1.5520   -0.0019    2.6567 C   0  0  0  0  0  0  0  0  0  0  0  0
    2.7940    0.6465    2.7568 C   0  0  0  0  0  3  0  0  0  0  0  0
    2.9891    1.7337    3.6043 C   0  0  0  0  0  3  0  0  0  0  0  0
    1.9353    2.1988    4.3774 C   0  0  0  0  0  3  0  0  0  0  0  0
    0.6920    1.5815    4.2884 C   0  0  0  0  0  3  0  0  0  0  0  0
    0.4781    0.4954    3.4287 C   0  0  0  0  0  0  0  0  0  0  0  0
   -1.1987   -0.1432    3.4368 S   0  0  0  0  0  0  0  0  0  0  0  0
   -1.5388    0.0720    1.7912 C   0  0  0  0  0  2  0  0  0  0  0  0
   -1.7422    0.1512    0.3866 C   0  0  0  0  0  3  0  0  0  0  0  0
   -2.2190   -0.9899   -0.3754 C   0  0  0  0  0  2  0  0  0  0  0  0
   -2.2613   -1.4975   -1.6529 N   0  0  0  0  0  0  0  0  0  0  0  0
   -2.5783   -2.7991   -2.0274 C   0  0  0  0  0  0  0  0  0  0  0  0
   -3.0691   -3.6374   -1.2699 O   0  0  0  0  0  0  0  0  0  0  0  0
   -2.3247   -3.0807   -3.4626 C   0  0  0  0  0  3  0  0  0  0  0  0
   -3.3651   -3.5670   -4.3184 C   0  0  0  0  0  2  0  0  0  0  0  0
   -2.1811   -4.4119   -3.9688 C   0  0  0  0  0  2  0  0  0  0  0  0
   -1.7646   -0.4628   -2.3935 C   0  0  0  0  0  2  0  0  0  0  0  0
   -1.2521    0.8410   -1.7513 C   0  0  0  0  0  2  0  0  0  0  0  0
   -1.1791    1.1953   -0.4246 N   0  0  0  0  0  0  0  0  0  0  0  0
   -0.6277    2.3544    0.1365 C   0  0  0  0  0  0  0  0  0  0  0  0
   -0.7917    2.7340    1.2964 O   0  0  0  0  0  0  0  0  0  0  0  0
    0.1884    3.2278   -0.7382 C   0  0  0  0  0  0  0  0  0  0  0  0
    0.1667    4.6035   -0.5048 C   0  0  0  0  0  3  0  0  0  0  0  0
    0.9742    5.4508   -1.2592 C   0  0  0  0  0  3  0  0  0  0  0  0
    1.8185    4.9229   -2.2331 C   0  0  0  0  0  3  0  0  0  0  0  0
    1.8602    3.5478   -2.4497 C   0  0  0  0  0  3  0  0  0  0  0  0
    1.0532    2.7001   -1.6954 C   0  0  0  0  0  3  0  0  0  0  0  0
    1.5764   -0.9255    0.3550 C   0  0  0  0  0  3  0  0  0  0  0  0
  1  2  1  0
  2  3  2  0
  2  4  1  0
  4  5  2  0
  5  6  1  0
  6  7  2  0
  7  8  1  0
  8  9  1  0
  9 10  2  0
 10 11  1  0
 11 12  2  0
 12 13  1  0
 13 14  2  0
 14 15  1  0
 15 16  1  0
 16 17  1  0
 17 18  1  0
 18 19  1  0
 19 20  1  0
 20 21  2  0
 20 22  1  0
 22 23  1  0
 23 24  1  0
 19 25  1  0
 25 26  1  0
 26 27  1  0
 27 28  1  0
 28 29  2  0
 28 30  1  0
 30 31  2  0
 31 32  1  0
 32 33  2  0
 33 34  1  0
 34 35  2  0
  8 36  2  0
 36  4  1  0
 14  9  1  0
 27 17  1  0
 35 30  1  0
 24 22  1  0
M  RAD  8   1   2   5   2   6   2   7   2  10   2  11   2  12   2  13   2
M  RAD  8  16   3  17   2  18   3  22   2  23   3  24   3  25   3  26   3
M  RAD  6  31   2  32   2  33   2  34   2  35   2  36   2
M  END
$$$$
