BB_35
     RDKit          3D

 72 76  0  0  0  0  0  0  0  0999 V2000
   -2.0668   -0.2716   -0.8559 C   0  0  0  0  0  0  0  0  0  0  0  0
   -1.0794    0.4231   -1.6022 C   0  0  0  0  0  0  0  0  0  0  0  0
   -1.4776    1.2683   -2.6559 C   0  0  0  0  0  0  0  0  0  0  0  0
   -2.8247    1.4357   -2.9793 C   0  0  0  0  0  0  0  0  0  0  0  0
   -3.7967    0.7649   -2.2503 C   0  0  0  0  0  0  0  0  0  0  0  0
   -3.4218   -0.0811   -1.2030 C   0  0  0  0  0  0  0  0  0  0  0  0
   -5.1818    0.9341   -2.5335 N   0  0  0  0  0  0  0  0  0  0  0  0
   -5.8909    2.4550   -2.3745 S   0  0  0  0  0  6  0  0  0  0  0  0
   -5.6158    2.8319   -0.6540 C   0  0  0  0  0  0  0  0  0  0  0  0
   -6.2784    4.1451   -0.2984 C   0  0  0  0  0  0  0  0  0  0  0  0
   -6.0710    4.4042    1.0882 O   0  0  0  0  0  0  0  0  0  0  0  0
   -7.3110    2.2356   -2.5544 O   0  0  0  0  0  0  0  0  0  0  0  0
   -5.1747    3.4149   -3.1840 O   0  0  0  0  0  0  0  0  0  0  0  0
    0.4067    0.3110   -1.3690 C   0  0  0  0  0  0  0  0  0  0  0  0
    0.8044   -0.7221   -0.5476 N   0  0  0  0  0  0  0  0  0  0  0  0
    2.1046   -1.0895   -0.1528 C   0  0  0  0  0  0  0  0  0  0  0  0
    2.2187   -2.1854    0.7038 C   0  0  0  0  0  0  0  0  0  0  0  0
    3.4718   -2.6064    1.1364 C   0  0  0  0  0  0  0  0  0  0  0  0
    4.6195   -1.9306    0.7140 C   0  0  0  0  0  0  0  0  0  0  0  0
    4.5523   -0.8214   -0.1440 C   0  0  0  0  0  0  0  0  0  0  0  0
    3.2670   -0.4253   -0.5644 C   0  0  0  0  0  0  0  0  0  0  0  0
    5.7024   -0.1593   -0.5645 N   0  0  0  0  0  0  0  0  0  0  0  0
    5.6784    0.6906   -1.7619 C   0  0  0  0  0  0  0  0  0  0  0  0
    7.0765    0.7852   -2.3464 C   0  0  0  0  0  0  0  0  0  0  0  0
    8.0286    1.3760   -1.3283 C   0  0  0  0  0  0  0  0  0  0  0  0
    7.6461    1.1573    0.1198 C   0  0  0  0  0  0  0  0  0  0  0  0
    6.9085   -0.1607    0.2707 C   0  0  0  0  0  0  0  0  0  0  0  0
    8.1479    2.7148   -1.5440 F   0  0  0  0  0  0  0  0  0  0  0  0
    9.2693    0.8583   -1.5466 F   0  0  0  0  0  0  0  0  0  0  0  0
    1.1504    1.1147   -1.9234 O   0  0  0  0  0  0  0  0  0  0  0  0
   -1.7206   -1.0912    0.2505 N   0  0  0  0  0  0  0  0  0  0  0  0
   -2.3526   -2.4351    0.2961 C   0  0  0  0  0  0  0  0  0  0  0  0
   -3.3053   -2.6008    1.4840 C   0  0  0  0  0  0  0  0  0  0  0  0
   -2.6034   -2.3096    2.7982 C   0  0  0  0  0  0  0  0  0  0  0  0
   -1.5340   -1.2331    2.7170 C   0  0  0  0  0  0  0  0  0  0  0  0
   -1.7716   -0.3111    1.5174 C   0  0  0  0  0  0  0  0  0  0  0  0
   -2.3725   -3.4515    3.7680 C   0  0  0  0  0  0  0  0  0  0  0  0
   -3.4216   -2.4240    4.0690 C   0  0  0  0  0  0  0  0  0  0  0  0
   -0.7300    1.8015   -3.2425 H   0  0  0  0  0  0  0  0  0  0  0  0
   -3.0943    2.0851   -3.8092 H   0  0  0  0  0  0  0  0  0  0  0  0
   -4.1956   -0.5806   -0.6281 H   0  0  0  0  0  0  0  0  0  0  0  0
   -5.8155    0.1820   -2.2640 H   0  0  0  0  0  0  0  0  0  0  0  0
   -4.5389    2.8902   -0.4710 H   0  0  0  0  0  0  0  0  0  0  0  0
   -6.0266    2.0154   -0.0518 H   0  0  0  0  0  0  0  0  0  0  0  0
   -7.3565    4.1120   -0.4844 H   0  0  0  0  0  0  0  0  0  0  0  0
   -5.8512    4.9725   -0.8742 H   0  0  0  0  0  0  0  0  0  0  0  0
   -6.4793    5.2677    1.2805 H   0  0  0  0  0  0  0  0  0  0  0  0
    0.0356   -1.2639   -0.1547 H   0  0  0  0  0  0  0  0  0  0  0  0
    1.3375   -2.7252    1.0381 H   0  0  0  0  0  0  0  0  0  0  0  0
    3.5617   -3.4658    1.7949 H   0  0  0  0  0  0  0  0  0  0  0  0
    5.5805   -2.3099    1.0502 H   0  0  0  0  0  0  0  0  0  0  0  0
    3.1741    0.4398   -1.2099 H   0  0  0  0  0  0  0  0  0  0  0  0
    5.0280    0.2606   -2.5334 H   0  0  0  0  0  0  0  0  0  0  0  0
    5.2950    1.6868   -1.5094 H   0  0  0  0  0  0  0  0  0  0  0  0
    7.4217   -0.2144   -2.6390 H   0  0  0  0  0  0  0  0  0  0  0  0
    7.0641    1.3997   -3.2532 H   0  0  0  0  0  0  0  0  0  0  0  0
    7.0083    1.9813    0.4636 H   0  0  0  0  0  0  0  0  0  0  0  0
    8.5419    1.1612    0.7504 H   0  0  0  0  0  0  0  0  0  0  0  0
    6.6581   -0.2764    1.3323 H   0  0  0  0  0  0  0  0  0  0  0  0
    7.5530   -1.0005   -0.0156 H   0  0  0  0  0  0  0  0  0  0  0  0
   -1.5387   -3.1648    0.3944 H   0  0  0  0  0  0  0  0  0  0  0  0
   -2.8672   -2.6827   -0.6403 H   0  0  0  0  0  0  0  0  0  0  0  0
   -4.1553   -1.9158    1.3791 H   0  0  0  0  0  0  0  0  0  0  0  0
   -3.7149   -3.6178    1.4781 H   0  0  0  0  0  0  0  0  0  0  0  0
   -0.5520   -1.7124    2.6197 H   0  0  0  0  0  0  0  0  0  0  0  0
   -1.5140   -0.6347    3.6350 H   0  0  0  0  0  0  0  0  0  0  0  0
   -0.9972    0.4652    1.5047 H   0  0  0  0  0  0  0  0  0  0  0  0
   -2.7439    0.1877    1.6277 H   0  0  0  0  0  0  0  0  0  0  0  0
   -1.4732   -3.4462    4.3754 H   0  0  0  0  0  0  0  0  0  0  0  0
   -2.7033   -4.4485    3.4980 H   0  0  0  0  0  0  0  0  0  0  0  0
   -4.4608   -2.7274    3.9956 H   0  0  0  0  0  0  0  0  0  0  0  0
   -3.2320   -1.7326    4.8832 H   0  0  0  0  0  0  0  0  0  0  0  0
  1  2  1  0
  2  3  2  0
  3  4  1  0
  4  5  2  0
  5  6  1  0
  5  7  1  0
  7  8  1  0
  8  9  1  0
  9 10  1  0
 10 11  1  0
  8 12  2  0
  8 13  2  0
  2 14  1  0
 14 15  1  0
 15 16  1  0
 16 17  2  0
 17 18  1  0
 18 19  2  0
 19 20  1  0
 20 21  2  0
 20 22  1  0
 22 23  1  0
 23 24  1  0
 24 25  1  0
 25 26  1  0
 26 27  1  0
 25 28  1  0
 25 29  1  0
 14 30  2  0
  1 31  1  0
 31 32  1  0
 32 33  1  0
 33 34  1  0
 34 35  1  0
 35 36  1  0
 34 37  1  0
 37 38  1  0
  6  1  2  0
 21 16  1  0
 27 22  1  0
 36 31  1  0
 38 34  1  0
  3 39  1  0
  4 40  1  0
  6 41  1  0
  7 42  1  0
  9 43  1  0
  9 44  1  0
 10 45  1  0
 10 46  1  0
 11 47  1  0
 15 48  1  0
 17 49  1  0
 18 50  1  0
 19 51  1  0
 21 52  1  0
 23 53  1  0
 23 54  1  0
 24 55  1  0
 24 56  1  0
 26 57  1  0
 26 58  1  0
 27 59  1  0
 27 60  1  0
 32 61  1  0
 32 62  1  0
 33 63  1  0
 33 64  1  0
 35 65  1  0
 35 66  1  0
 36 67  1  0
 36 68  1  0
 37 69  1  0
 37 70  1  0
 38 71  1  0
 38 72  1  0
M  END
$$$$
