BB_36
     RDKit          3D

 74 77  0  0  0  0  0  0  0  0999 V2000
   -1.9524    1.0265    0.5571 C   0  0  0  0  0  0  0  0  0  0  0  0
   -0.6057    0.6475    0.3892 C   0  0  0  0  0  0  0  0  0  0  0  0
   -0.2290   -0.6456    0.1132 N   0  0  0  0  0  0  0  0  0  0  0  0
   -1.2402   -1.5398    0.0372 C   0  0  0  0  0  0  0  0  0  0  0  0
   -2.5722   -1.2040    0.2381 C   0  0  0  0  0  0  0  0  0  0  0  0
   -2.9266    0.0729    0.4782 N   0  0  0  0  0  0  0  0  0  0  0  0
   -3.6327   -2.1067    0.1733 N   0  0  0  0  0  0  0  0  0  0  0  0
   -3.7690   -3.1252    1.2578 C   0  0  0  0  0  0  0  0  0  0  0  0
   -2.7752   -4.2926    1.0421 C   0  0  0  0  0  0  0  0  0  0  0  0
   -2.7756   -4.7101   -0.3245 O   0  0  0  0  0  0  0  0  0  0  0  0
   -5.2057   -3.6825    1.1394 C   0  0  0  0  0  0  0  0  0  0  0  0
   -3.6010   -2.5172    2.6576 C   0  0  0  0  0  0  0  0  0  0  0  0
    0.5686    1.5906    0.5317 C   0  0  0  0  0  0  0  0  0  0  0  0
    1.7689    0.9640    0.2547 N   0  0  0  0  0  0  0  0  0  0  0  0
    3.0617    1.4780    0.2840 C   0  0  0  0  0  0  0  0  0  0  0  0
    3.3667    2.7957    0.6137 C   0  0  0  0  0  0  0  0  0  0  0  0
    4.7004    3.2166    0.6120 C   0  0  0  0  0  0  0  0  0  0  0  0
    5.7015    2.3149    0.2867 C   0  0  0  0  0  0  0  0  0  0  0  0
    5.3001    1.0267   -0.0119 C   0  0  0  0  0  0  0  0  0  0  0  0
    4.0101    0.5770   -0.0422 N   0  0  0  0  0  0  0  0  0  0  0  0
    6.5042   -0.2015   -0.5025 S   0  0  0  0  0  6  0  0  0  0  0  0
    5.5662   -1.2368   -1.4556 N   0  0  0  0  0  0  0  0  0  0  0  0
    6.0144   -2.5999   -1.8137 C   0  0  0  0  0  0  0  0  0  0  0  0
    7.4904   -2.6331   -2.2199 C   0  0  0  0  0  0  0  0  0  0  0  0
    5.1621   -3.0294   -3.0203 C   0  0  0  0  0  0  0  0  0  0  0  0
    5.7454   -3.5599   -0.6506 C   0  0  0  0  0  0  0  0  0  0  0  0
    6.9039   -0.9066    0.6956 O   0  0  0  0  0  0  0  0  0  0  0  0
    7.4694    0.4418   -1.3689 O   0  0  0  0  0  0  0  0  0  0  0  0
    0.4541    2.7631    0.8596 O   0  0  0  0  0  0  0  0  0  0  0  0
   -2.3729    2.3512    0.7648 N   0  0  0  0  0  0  0  0  0  0  0  0
   -2.3607    3.1114   -0.5060 C   0  0  0  0  0  0  0  0  0  0  0  0
   -3.2020    4.3883   -0.3962 C   0  0  0  0  0  0  0  0  0  0  0  0
   -4.6510    4.0525   -0.0849 C   0  0  0  0  0  0  0  0  0  0  0  0
   -4.8348    2.7778    0.7231 C   0  0  0  0  0  0  0  0  0  0  0  0
   -3.5967    2.4921    1.5793 C   0  0  0  0  0  0  0  0  0  0  0  0
   -5.7156    4.3947   -1.1082 C   0  0  0  0  0  0  0  0  0  0  0  0
   -5.6050    5.2072    0.1468 C   0  0  0  0  0  0  0  0  0  0  0  0
   -0.9408   -2.5496   -0.2187 H   0  0  0  0  0  0  0  0  0  0  0  0
   -4.4381   -1.4744    0.2304 H   0  0  0  0  0  0  0  0  0  0  0  0
   -3.0349   -5.1571    1.6627 H   0  0  0  0  0  0  0  0  0  0  0  0
   -1.7525   -4.0073    1.3047 H   0  0  0  0  0  0  0  0  0  0  0  0
   -3.0752   -3.9319   -0.8384 H   0  0  0  0  0  0  0  0  0  0  0  0
   -5.3894   -4.4697    1.8791 H   0  0  0  0  0  0  0  0  0  0  0  0
   -5.3921   -4.1040    0.1449 H   0  0  0  0  0  0  0  0  0  0  0  0
   -5.9499   -2.8935    1.3003 H   0  0  0  0  0  0  0  0  0  0  0  0
   -2.5806   -2.1558    2.8254 H   0  0  0  0  0  0  0  0  0  0  0  0
   -4.2799   -1.6698    2.8068 H   0  0  0  0  0  0  0  0  0  0  0  0
   -3.8137   -3.2591    3.4357 H   0  0  0  0  0  0  0  0  0  0  0  0
    1.7083   -0.0210    0.0156 H   0  0  0  0  0  0  0  0  0  0  0  0
    2.5978    3.5146    0.8736 H   0  0  0  0  0  0  0  0  0  0  0  0
    4.9448    4.2458    0.8625 H   0  0  0  0  0  0  0  0  0  0  0  0
    6.7460    2.6052    0.2643 H   0  0  0  0  0  0  0  0  0  0  0  0
    4.5744   -1.1293   -1.2192 H   0  0  0  0  0  0  0  0  0  0  0  0
    8.1521   -2.3996   -1.3791 H   0  0  0  0  0  0  0  0  0  0  0  0
    7.7748   -3.6267   -2.5851 H   0  0  0  0  0  0  0  0  0  0  0  0
    7.6999   -1.9124   -3.0185 H   0  0  0  0  0  0  0  0  0  0  0  0
    5.4209   -4.0410   -3.3525 H   0  0  0  0  0  0  0  0  0  0  0  0
    5.3065   -2.3493   -3.8681 H   0  0  0  0  0  0  0  0  0  0  0  0
    4.0933   -3.0203   -2.7756 H   0  0  0  0  0  0  0  0  0  0  0  0
    4.7023   -3.5002   -0.3191 H   0  0  0  0  0  0  0  0  0  0  0  0
    5.9458   -4.5972   -0.9421 H   0  0  0  0  0  0  0  0  0  0  0  0
    6.3764   -3.3405    0.2157 H   0  0  0  0  0  0  0  0  0  0  0  0
   -2.7619    2.4984   -1.3256 H   0  0  0  0  0  0  0  0  0  0  0  0
   -1.3363    3.3881   -0.7751 H   0  0  0  0  0  0  0  0  0  0  0  0
   -3.1261    4.9547   -1.3316 H   0  0  0  0  0  0  0  0  0  0  0  0
   -2.8018    5.0263    0.4018 H   0  0  0  0  0  0  0  0  0  0  0  0
   -5.7134    2.8557    1.3738 H   0  0  0  0  0  0  0  0  0  0  0  0
   -5.0151    1.9423    0.0358 H   0  0  0  0  0  0  0  0  0  0  0  0
   -3.4363    3.3378    2.2608 H   0  0  0  0  0  0  0  0  0  0  0  0
   -3.7695    1.6246    2.2289 H   0  0  0  0  0  0  0  0  0  0  0  0
   -6.5704    3.7344   -1.2091 H   0  0  0  0  0  0  0  0  0  0  0  0
   -5.4178    4.8609   -2.0409 H   0  0  0  0  0  0  0  0  0  0  0  0
   -5.2240    6.2196    0.0623 H   0  0  0  0  0  0  0  0  0  0  0  0
   -6.3882    5.1017    0.8895 H   0  0  0  0  0  0  0  0  0  0  0  0
  1  2  1  0
  2  3  2  0
  3  4  1  0
  4  5  2  0
  5  6  1  0
  5  7  1  0
  7  8  1  0
  8  9  1  0
  9 10  1  0
  8 11  1  0
  8 12  1  0
  2 13  1  0
 13 14  1  0
 14 15  1  0
 15 16  2  0
 16 17  1  0
 17 18  2  0
 18 19  1  0
 19 20  2  0
 19 21  1  0
 21 22  1  0
 22 23  1  0
 23 24  1  0
 23 25  1  0
 23 26  1  0
 21 27  2  0
 21 28  2  0
 13 29  2  0
  1 30  1  0
 30 31  1  0
 31 32  1  0
 32 33  1  0
 33 34  1  0
 34 35  1  0
 33 36  1  0
 36 37  1  0
  6  1  2  0
 20 15  1  0
 35 30  1  0
 37 33  1  0
  4 38  1  0
  7 39  1  0
  9 40  1  0
  9 41  1  0
 10 42  1  0
 11 43  1  0
 11 44  1  0
 11 45  1  0
 12 46  1  0
 12 47  1  0
 12 48  1  0
 14 49  1  0
 16 50  1  0
 17 51  1  0
 18 52  1  0
 22 53  1  0
 24 54  1  0
 24 55  1  0
 24 56  1  0
 25 57  1  0
 25 58  1  0
 25 59  1  0
 26 60  1  0
 26 61  1  0
 26 62  1  0
 31 63  1  0
 31 64  1  0
 32 65  1  0
 32 66  1  0
 34 67  1  0
 34 68  1  0
 35 69  1  0
 35 70  1  0
 36 71  1  0
 36 72  1  0
 37 73  1  0
 37 74  1  0
M  END
$$$$
