BB_38
     RDKit          3D

 74 78  0  0  0  0  0  0  0  0999 V2000
   -0.9357    0.8595    0.4117 C   0  0  0  0  0  0  0  0  0  0  0  0
   -1.4464    1.9070   -0.3741 C   0  0  0  0  0  0  0  0  0  0  0  0
   -2.7998    1.9411   -0.7043 C   0  0  0  0  0  0  0  0  0  0  0  0
   -3.6412    0.9297   -0.2537 C   0  0  0  0  0  0  0  0  0  0  0  0
   -3.1438   -0.1024    0.5483 C   0  0  0  0  0  0  0  0  0  0  0  0
   -1.7764   -0.1721    0.8820 C   0  0  0  0  0  0  0  0  0  0  0  0
   -1.2572   -1.3127    1.7526 C   0  0  0  0  0  0  0  0  0  0  0  0
   -1.6126   -2.7056    1.1858 C   0  0  0  0  0  0  0  0  0  0  0  0
   -1.4330   -3.7855    2.2490 C   0  0  0  0  0  0  0  0  0  0  0  0
   -2.3672   -3.5520    3.4213 C   0  0  0  0  0  0  0  0  0  0  0  0
   -2.7841   -2.1100    3.6459 C   0  0  0  0  0  0  0  0  0  0  0  0
   -1.6797   -1.1415    3.2289 C   0  0  0  0  0  0  0  0  0  0  0  0
   -2.1885   -4.4449    4.6327 C   0  0  0  0  0  0  0  0  0  0  0  0
   -3.3875   -4.6230    3.7514 C   0  0  0  0  0  0  0  0  0  0  0  0
   -5.0429    0.9998   -0.5405 N   0  0  0  0  0  0  0  0  0  0  0  0
   -5.9696    1.8080    0.6412 S   0  0  0  0  0  6  0  0  0  0  0  0
   -7.1851    2.6190   -0.3786 C   0  0  0  0  0  0  0  0  0  0  0  0
   -6.5706    3.7445   -1.1845 C   0  0  0  0  0  0  0  0  0  0  0  0
   -6.3504    4.8995   -0.3810 O   0  0  0  0  0  0  0  0  0  0  0  0
   -5.1763    2.8343    1.2834 O   0  0  0  0  0  0  0  0  0  0  0  0
   -6.6283    0.7620    1.3930 O   0  0  0  0  0  0  0  0  0  0  0  0
    0.5084    0.9156    0.7561 C   0  0  0  0  0  0  0  0  0  0  0  0
    1.3348    0.8735   -0.3402 N   0  0  0  0  0  0  0  0  0  0  0  0
    2.7313    0.9224   -0.3672 C   0  0  0  0  0  0  0  0  0  0  0  0
    3.5135    1.0626    0.7508 C   0  0  0  0  0  0  0  0  0  0  0  0
    4.8699    1.0991    0.5310 C   0  0  0  0  0  0  0  0  0  0  0  0
    5.4024    1.0027   -0.7029 N   0  0  0  0  0  0  0  0  0  0  0  0
    4.5758    0.8643   -1.7506 C   0  0  0  0  0  0  0  0  0  0  0  0
    3.2421    0.8239   -1.6066 N   0  0  0  0  0  0  0  0  0  0  0  0
    5.1218    0.7921   -3.0437 N   0  0  0  0  0  0  0  0  0  0  0  0
    4.2589    0.0919   -3.9981 C   0  0  0  0  0  0  0  0  0  0  0  0
    4.8045    0.2542   -5.4071 C   0  0  0  0  0  0  0  0  0  0  0  0
    6.2536   -0.1689   -5.4499 C   0  0  0  0  0  0  0  0  0  0  0  0
    7.1108    0.5708   -4.4508 C   0  0  0  0  0  0  0  0  0  0  0  0
    6.5368    0.4068   -3.0530 C   0  0  0  0  0  0  0  0  0  0  0  0
    6.7430    0.0361   -6.7005 F   0  0  0  0  0  0  0  0  0  0  0  0
    6.3426   -1.5062   -5.2255 F   0  0  0  0  0  0  0  0  0  0  0  0
    5.8184    1.2552    1.6808 C   0  0  0  0  0  0  0  0  0  0  0  0
    0.8366    0.9860    1.9322 O   0  0  0  0  0  0  0  0  0  0  0  0
   -0.7985    2.7175   -0.7023 H   0  0  0  0  0  0  0  0  0  0  0  0
   -3.1904    2.7652   -1.2939 H   0  0  0  0  0  0  0  0  0  0  0  0
   -3.8340   -0.8499    0.9325 H   0  0  0  0  0  0  0  0  0  0  0  0
   -0.1613   -1.2821    1.7453 H   0  0  0  0  0  0  0  0  0  0  0  0
   -0.9723   -2.9207    0.3212 H   0  0  0  0  0  0  0  0  0  0  0  0
   -2.6447   -2.7481    0.8194 H   0  0  0  0  0  0  0  0  0  0  0  0
   -0.3950   -3.7824    2.6044 H   0  0  0  0  0  0  0  0  0  0  0  0
   -1.6127   -4.7687    1.7986 H   0  0  0  0  0  0  0  0  0  0  0  0
   -3.0309   -1.9382    4.7005 H   0  0  0  0  0  0  0  0  0  0  0  0
   -3.6970   -1.9051    3.0747 H   0  0  0  0  0  0  0  0  0  0  0  0
   -1.9848   -0.1104    3.4446 H   0  0  0  0  0  0  0  0  0  0  0  0
   -0.8025   -1.3370    3.8610 H   0  0  0  0  0  0  0  0  0  0  0  0
   -2.3421   -4.0250    5.6208 H   0  0  0  0  0  0  0  0  0  0  0  0
   -1.4217   -5.2118    4.6050 H   0  0  0  0  0  0  0  0  0  0  0  0
   -4.3520   -4.3184    4.1443 H   0  0  0  0  0  0  0  0  0  0  0  0
   -3.4346   -5.5137    3.1349 H   0  0  0  0  0  0  0  0  0  0  0  0
   -5.4489    0.0652   -0.6462 H   0  0  0  0  0  0  0  0  0  0  0  0
   -7.6249    1.8529   -1.0242 H   0  0  0  0  0  0  0  0  0  0  0  0
   -7.9557    2.9961    0.3015 H   0  0  0  0  0  0  0  0  0  0  0  0
   -7.2664    4.0435   -1.9748 H   0  0  0  0  0  0  0  0  0  0  0  0
   -5.6278    3.4645   -1.6624 H   0  0  0  0  0  0  0  0  0  0  0  0
   -5.7070    4.6619    0.3199 H   0  0  0  0  0  0  0  0  0  0  0  0
    0.9337    0.7718   -1.2628 H   0  0  0  0  0  0  0  0  0  0  0  0
    3.1141    1.1469    1.7509 H   0  0  0  0  0  0  0  0  0  0  0  0
    4.1914   -0.9733   -3.7397 H   0  0  0  0  0  0  0  0  0  0  0  0
    3.2410    0.5013   -4.0002 H   0  0  0  0  0  0  0  0  0  0  0  0
    4.2153   -0.3507   -6.1052 H   0  0  0  0  0  0  0  0  0  0  0  0
    4.7148    1.2975   -5.7340 H   0  0  0  0  0  0  0  0  0  0  0  0
    7.1596    1.6326   -4.7214 H   0  0  0  0  0  0  0  0  0  0  0  0
    8.1367    0.1871   -4.4780 H   0  0  0  0  0  0  0  0  0  0  0  0
    6.6508   -0.6329   -2.7185 H   0  0  0  0  0  0  0  0  0  0  0  0
    7.1328    1.0430   -2.3866 H   0  0  0  0  0  0  0  0  0  0  0  0
    5.6997    0.4257    2.3849 H   0  0  0  0  0  0  0  0  0  0  0  0
    6.8562    1.2596    1.3320 H   0  0  0  0  0  0  0  0  0  0  0  0
    5.6301    2.1993    2.2014 H   0  0  0  0  0  0  0  0  0  0  0  0
  1  2  2  0
  2  3  1  0
  3  4  2  0
  4  5  1  0
  5  6  2  0
  6  7  1  0
  7  8  1  0
  8  9  1  0
  9 10  1  0
 10 11  1  0
 11 12  1  0
 10 13  1  0
 13 14  1  0
  4 15  1  0
 15 16  1  0
 16 17  1  0
 17 18  1  0
 18 19  1  0
 16 20  2  0
 16 21  2  0
  1 22  1  0
 22 23  1  0
 23 24  1  0
 24 25  2  0
 25 26  1  0
 26 27  2  0
 27 28  1  0
 28 29  2  0
 28 30  1  0
 30 31  1  0
 31 32  1  0
 32 33  1  0
 33 34  1  0
 34 35  1  0
 33 36  1  0
 33 37  1  0
 26 38  1  0
 22 39  2  0
  6  1  1  0
 12  7  1  0
 29 24  1  0
 35 30  1  0
 14 10  1  0
  2 40  1  0
  3 41  1  0
  5 42  1  0
  7 43  1  0
  8 44  1  0
  8 45  1  0
  9 46  1  0
  9 47  1  0
 11 48  1  0
 11 49  1  0
 12 50  1  0
 12 51  1  0
 13 52  1  0
 13 53  1  0
 14 54  1  0
 14 55  1  0
 15 56  1  0
 17 57  1  0
 17 58  1  0
 18 59  1  0
 18 60  1  0
 19 61  1  0
 23 62  1  0
 25 63  1  0
 31 64  1  0
 31 65  1  0
 32 66  1  0
 32 67  1  0
 34 68  1  0
 34 69  1  0
 35 70  1  0
 35 71  1  0
 38 72  1  0
 38 73  1  0
 38 74  1  0
M  END
$$$$
