BB_44
     RDKit          3D

 67 71  0  0  0  0  0  0  0  0999 V2000
    0.2705    0.4812   -2.0135 C   0  0  0  0  0  0  0  0  0  0  0  0
    1.2823    1.2660   -2.6081 C   0  0  0  0  0  0  0  0  0  0  0  0
    1.6418    2.5068   -2.0853 C   0  0  0  0  0  0  0  0  0  0  0  0
    0.9872    2.9912   -0.9595 C   0  0  0  0  0  0  0  0  0  0  0  0
   -0.0486    2.2538   -0.3834 C   0  0  0  0  0  0  0  0  0  0  0  0
   -0.4331    0.9953   -0.8877 C   0  0  0  0  0  0  0  0  0  0  0  0
   -1.4964    0.2675   -0.3072 N   0  0  0  0  0  0  0  0  0  0  0  0
   -1.7426    0.4500    1.1366 C   0  0  0  0  0  0  0  0  0  0  0  0
   -2.6882   -0.6509    1.6374 C   0  0  0  0  0  0  0  0  0  0  0  0
   -3.9659   -0.6736    0.8210 C   0  0  0  0  0  0  0  0  0  0  0  0
   -3.7124   -0.7433   -0.6732 C   0  0  0  0  0  0  0  0  0  0  0  0
   -2.7363    0.3559   -1.1138 C   0  0  0  0  0  0  0  0  0  0  0  0
   -5.1617   -1.4109    1.3806 C   0  0  0  0  0  0  0  0  0  0  0  0
   -5.1707    0.0916    1.3246 C   0  0  0  0  0  0  0  0  0  0  0  0
    1.3945    4.2464   -0.4199 N   0  0  0  0  0  0  0  0  0  0  0  0
    1.9395    4.3327    1.1707 S   0  0  0  0  0  6  0  0  0  0  0  0
    3.3142    3.1901    1.1794 C   0  0  0  0  0  0  0  0  0  0  0  0
    4.1091    3.3572    2.4598 C   0  0  0  0  0  0  0  0  0  0  0  0
    5.0045    4.4619    2.3580 O   0  0  0  0  0  0  0  0  0  0  0  0
    2.4857    5.6662    1.3281 O   0  0  0  0  0  0  0  0  0  0  0  0
    0.9209    3.8363    2.0692 O   0  0  0  0  0  0  0  0  0  0  0  0
   -0.0139   -0.8460   -2.6028 C   0  0  0  0  0  0  0  0  0  0  0  0
   -0.5703   -0.7434   -3.8511 N   0  0  0  0  0  0  0  0  0  0  0  0
   -0.9743   -1.8751   -4.4550 C   0  0  0  0  0  0  0  0  0  0  0  0
   -0.8485   -3.1239   -3.8883 C   0  0  0  0  0  0  0  0  0  0  0  0
   -0.2484   -3.2190   -2.6347 C   0  0  0  0  0  0  0  0  0  0  0  0
    0.2171   -2.0822   -1.9483 C   0  0  0  0  0  0  0  0  0  0  0  0
    0.8798   -2.2480   -0.7335 N   0  0  0  0  0  0  0  0  0  0  0  0
    0.4113   -3.2510    0.2242 C   0  0  0  0  0  0  0  0  0  0  0  0
    0.8080   -2.8386    1.6303 C   0  0  0  0  0  0  0  0  0  0  0  0
    2.3134   -2.6905    1.7223 C   0  0  0  0  0  0  0  0  0  0  0  0
    3.0080   -2.2861    0.4374 C   0  0  0  0  0  0  0  0  0  0  0  0
    2.0651   -1.4538   -0.4130 C   0  0  0  0  0  0  0  0  0  0  0  0
    2.5979   -1.7756    2.6904 F   0  0  0  0  0  0  0  0  0  0  0  0
    2.8555   -3.8623    2.1536 F   0  0  0  0  0  0  0  0  0  0  0  0
    1.7960    0.8897   -3.4919 H   0  0  0  0  0  0  0  0  0  0  0  0
    2.4317    3.0747   -2.5675 H   0  0  0  0  0  0  0  0  0  0  0  0
   -0.5886    2.6885    0.4520 H   0  0  0  0  0  0  0  0  0  0  0  0
   -0.8026    0.3867    1.6977 H   0  0  0  0  0  0  0  0  0  0  0  0
   -2.1985    1.4290    1.3313 H   0  0  0  0  0  0  0  0  0  0  0  0
   -2.1997   -1.6285    1.5461 H   0  0  0  0  0  0  0  0  0  0  0  0
   -2.8993   -0.4936    2.7017 H   0  0  0  0  0  0  0  0  0  0  0  0
   -3.2886   -1.7272   -0.9110 H   0  0  0  0  0  0  0  0  0  0  0  0
   -4.6471   -0.6487   -1.2384 H   0  0  0  0  0  0  0  0  0  0  0  0
   -3.1971    1.3427   -0.9724 H   0  0  0  0  0  0  0  0  0  0  0  0
   -2.5466    0.2377   -2.1853 H   0  0  0  0  0  0  0  0  0  0  0  0
   -5.8086   -1.9475    0.6952 H   0  0  0  0  0  0  0  0  0  0  0  0
   -5.0742   -1.8810    2.3541 H   0  0  0  0  0  0  0  0  0  0  0  0
   -5.8262    0.5671    0.6031 H   0  0  0  0  0  0  0  0  0  0  0  0
   -5.0915    0.6335    2.2607 H   0  0  0  0  0  0  0  0  0  0  0  0
    1.9001    4.8785   -1.0408 H   0  0  0  0  0  0  0  0  0  0  0  0
    2.8964    2.1816    1.1147 H   0  0  0  0  0  0  0  0  0  0  0  0
    3.9313    3.4084    0.3029 H   0  0  0  0  0  0  0  0  0  0  0  0
    3.4774    3.4911    3.3436 H   0  0  0  0  0  0  0  0  0  0  0  0
    4.7289    2.4695    2.6197 H   0  0  0  0  0  0  0  0  0  0  0  0
    4.4680    5.2807    2.3248 H   0  0  0  0  0  0  0  0  0  0  0  0
   -1.4198   -1.7447   -5.4365 H   0  0  0  0  0  0  0  0  0  0  0  0
   -1.1896   -4.0092   -4.4121 H   0  0  0  0  0  0  0  0  0  0  0  0
   -0.1109   -4.2099   -2.2115 H   0  0  0  0  0  0  0  0  0  0  0  0
   -0.6811   -3.3442    0.1854 H   0  0  0  0  0  0  0  0  0  0  0  0
    0.8416   -4.2306   -0.0174 H   0  0  0  0  0  0  0  0  0  0  0  0
    0.3293   -1.8866    1.8879 H   0  0  0  0  0  0  0  0  0  0  0  0
    0.4559   -3.5814    2.3543 H   0  0  0  0  0  0  0  0  0  0  0  0
    3.9154   -1.7153    0.6627 H   0  0  0  0  0  0  0  0  0  0  0  0
    3.3180   -3.1811   -0.1163 H   0  0  0  0  0  0  0  0  0  0  0  0
    2.6003   -1.1605   -1.3237 H   0  0  0  0  0  0  0  0  0  0  0  0
    1.7849   -0.5455    0.1313 H   0  0  0  0  0  0  0  0  0  0  0  0
  1  2  2  0
  2  3  1  0
  3  4  2  0
  4  5  1  0
  5  6  2  0
  6  7  1  0
  7  8  1  0
  8  9  1  0
  9 10  1  0
 10 11  1  0
 11 12  1  0
 10 13  1  0
 13 14  1  0
  4 15  1  0
 15 16  1  0
 16 17  1  0
 17 18  1  0
 18 19  1  0
 16 20  2  0
 16 21  2  0
  1 22  1  0
 22 23  2  0
 23 24  1  0
 24 25  2  0
 25 26  1  0
 26 27  2  0
 27 28  1  0
 28 29  1  0
 29 30  1  0
 30 31  1  0
 31 32  1  0
 32 33  1  0
 31 34  1  0
 31 35  1  0
  6  1  1  0
 12  7  1  0
 27 22  1  0
 33 28  1  0
 14 10  1  0
  2 36  1  0
  3 37  1  0
  5 38  1  0
  8 39  1  0
  8 40  1  0
  9 41  1  0
  9 42  1  0
 11 43  1  0
 11 44  1  0
 12 45  1  0
 12 46  1  0
 13 47  1  0
 13 48  1  0
 14 49  1  0
 14 50  1  0
 15 51  1  0
 17 52  1  0
 17 53  1  0
 18 54  1  0
 18 55  1  0
 19 56  1  0
 24 57  1  0
 25 58  1  0
 26 59  1  0
 29 60  1  0
 29 61  1  0
 30 62  1  0
 30 63  1  0
 32 64  1  0
 32 65  1  0
 33 66  1  0
 33 67  1  0
M  END
$$$$
