5
     RDKit          3D

 49 51  0  0  0  0  0  0  0  0999 V2000
   -2.3753   -0.3226   -2.3586 O   0  0  0  0  0  0  0  0  0  0  0  0
   -1.5478   -0.3263   -1.4565 C   0  0  0  0  0  0  0  0  0  0  0  0
   -1.6537    0.3376   -0.2493 N   0  0  0  0  0  0  0  0  0  0  0  0
   -2.6870    1.2256    0.1513 C   0  0  0  0  0  0  0  0  0  0  0  0
   -3.5814    1.7842   -0.7719 C   0  0  0  0  0  0  0  0  0  0  0  0
   -4.5680    2.6862   -0.3648 C   0  0  0  0  0  0  0  0  0  0  0  0
   -4.6781    3.0424    0.9731 C   0  0  0  0  0  0  0  0  0  0  0  0
   -3.8006    2.4949    1.9072 C   0  0  0  0  0  0  0  0  0  0  0  0
   -2.7950    1.5923    1.5140 C   0  0  0  0  0  0  0  0  0  0  0  0
   -1.9549    0.9817    2.5612 C   0  0  0  0  0  0  0  0  0  0  0  0
   -1.3229    1.6853    3.5091 C   0  0  0  0  0  0  0  0  0  0  0  0
   -0.3273   -1.1576   -1.6583 C   0  0  0  0  0  0  0  0  0  0  0  0
    0.2708   -1.8016   -0.5656 C   0  0  0  0  0  0  0  0  0  0  0  0
   -0.2106   -1.6128    0.6740 F   0  0  0  0  0  0  0  0  0  0  0  0
    1.3824   -2.6418   -0.7145 C   0  0  0  0  0  0  0  0  0  0  0  0
    2.0304   -3.2653    0.4934 C   0  0  0  0  0  0  0  0  0  0  0  0
    3.5330   -2.3992    0.9292 S   0  0  0  0  0  6  0  0  0  0  0  0
    3.0735   -0.6822    1.0150 C   0  0  0  0  0  0  0  0  0  0  0  0
    3.3007    0.1522   -0.0845 C   0  0  0  0  0  0  0  0  0  0  0  0
    2.9136    1.4899   -0.0207 C   0  0  0  0  0  0  0  0  0  0  0  0
    2.3272    1.9913    1.1418 C   0  0  0  0  0  0  0  0  0  0  0  0
    2.1355    1.1612    2.2476 C   0  0  0  0  0  0  0  0  0  0  0  0
    2.5078   -0.1811    2.1897 C   0  0  0  0  0  0  0  0  0  0  0  0
    3.9025   -2.8033    2.2741 O   0  0  0  0  0  0  0  0  0  0  0  0
    4.4855   -2.5437   -0.1579 O   0  0  0  0  0  0  0  0  0  0  0  0
    1.8860   -2.8621   -1.9986 C   0  0  0  0  0  0  0  0  0  0  0  0
    1.3108   -2.2216   -3.0968 C   0  0  0  0  0  0  0  0  0  0  0  0
    0.2122   -1.3498   -2.9461 C   0  0  0  0  0  0  0  0  0  0  0  0
   -0.3269   -0.6418   -4.1710 C   0  0  0  0  0  0  0  0  0  0  0  0
    0.5694   -0.6761   -5.2063 F   0  0  0  0  0  0  0  0  0  0  0  0
   -1.4574   -1.2016   -4.6729 F   0  0  0  0  0  0  0  0  0  0  0  0
   -0.5645    0.6831   -3.9754 F   0  0  0  0  0  0  0  0  0  0  0  0
   -0.9621    0.1305    0.4624 H   0  0  0  0  0  0  0  0  0  0  0  0
   -3.5237    1.5531   -1.8314 H   0  0  0  0  0  0  0  0  0  0  0  0
   -5.2484    3.1077   -1.1007 H   0  0  0  0  0  0  0  0  0  0  0  0
   -5.4507    3.7373    1.2913 H   0  0  0  0  0  0  0  0  0  0  0  0
   -3.9208    2.7644    2.9544 H   0  0  0  0  0  0  0  0  0  0  0  0
   -1.8817   -0.1031    2.5467 H   0  0  0  0  0  0  0  0  0  0  0  0
   -0.7351    1.1811    4.2696 H   0  0  0  0  0  0  0  0  0  0  0  0
   -1.3723    2.7691    3.5544 H   0  0  0  0  0  0  0  0  0  0  0  0
    1.3704   -3.2486    1.3664 H   0  0  0  0  0  0  0  0  0  0  0  0
    2.2954   -4.3093    0.2963 H   0  0  0  0  0  0  0  0  0  0  0  0
    3.7727   -0.2268   -0.9886 H   0  0  0  0  0  0  0  0  0  0  0  0
    3.0792    2.1470   -0.8716 H   0  0  0  0  0  0  0  0  0  0  0  0
    2.0336    3.0378    1.1927 H   0  0  0  0  0  0  0  0  0  0  0  0
    1.7039    1.5678    3.1588 H   0  0  0  0  0  0  0  0  0  0  0  0
    2.3632   -0.8180    3.0595 H   0  0  0  0  0  0  0  0  0  0  0  0
    2.7476   -3.5121   -2.1562 H   0  0  0  0  0  0  0  0  0  0  0  0
    1.7389   -2.3955   -4.0858 H   0  0  0  0  0  0  0  0  0  0  0  0
  1  2  2  0
  2  3  1  0
  3  4  1  0
  4  5  2  0
  5  6  1  0
  6  7  2  0
  7  8  1  0
  8  9  2  0
  9 10  1  0
 10 11  2  0
  2 12  1  0
 12 13  2  0
 13 14  1  0
 13 15  1  0
 15 16  1  0
 16 17  1  0
 17 18  1  0
 18 19  2  0
 19 20  1  0
 20 21  2  0
 21 22  1  0
 22 23  2  0
 17 24  2  0
 17 25  2  0
 15 26  2  0
 26 27  1  0
 27 28  2  0
 28 29  1  0
 29 30  1  0
 29 31  1  0
 29 32  1  0
  9  4  1  0
 28 12  1  0
 23 18  1  0
  3 33  1  0
  5 34  1  0
  6 35  1  0
  7 36  1  0
  8 37  1  0
 10 38  1  0
 11 39  1  0
 11 40  1  0
 16 41  1  0
 16 42  1  0
 19 43  1  0
 20 44  1  0
 21 45  1  0
 22 46  1  0
 23 47  1  0
 26 48  1  0
 27 49  1  0
M  END
$$$$
