AGAN-209
     RDKit          3D

 37 42  0  0  0  0  0  0  0  0999 V2000
    0.9652   -0.9959    5.9797 O   0  0  0  0  0  1  0  0  0  0  0  0
    1.0838   -1.2452    4.6040 C   0  0  0  0  0  2  0  0  0  0  0  0
    1.2170   -1.5093    3.0950 C   0  0  0  0  0  2  0  0  0  0  0  0
    1.3432   -1.7281    1.7028 C   0  0  0  0  0  3  0  0  0  0  0  0
    1.7939   -0.7400    0.7531 C   0  0  0  0  0  2  0  0  0  0  0  0
    2.1285   -0.5264   -0.5615 N   0  0  0  0  0  0  0  0  0  0  0  0
    2.2869    0.6525   -1.2927 C   0  0  0  0  0  0  0  0  0  0  0  0
    2.4624    0.6598   -2.5137 O   0  0  0  0  0  0  0  0  0  0  0  0
    2.2250    1.9609   -0.5939 C   0  0  0  0  0  0  0  0  0  0  0  0
    2.3480    2.0925    0.7872 C   0  0  0  0  0  3  0  0  0  0  0  0
    2.2994    3.3502    1.3840 C   0  0  0  0  0  3  0  0  0  0  0  0
    2.1393    4.4875    0.5975 C   0  0  0  0  0  3  0  0  0  0  0  0
    2.0284    4.3669   -0.7846 C   0  0  0  0  0  3  0  0  0  0  0  0
    2.0739    3.1074   -1.3775 C   0  0  0  0  0  3  0  0  0  0  0  0
    2.0552   -1.7903   -1.0772 C   0  0  0  0  0  2  0  0  0  0  0  0
    1.5877   -3.0351   -0.2938 C   0  0  0  0  0  2  0  0  0  0  0  0
    1.1567   -3.1532    1.1250 N   0  0  0  0  0  0  0  0  0  0  0  0
   -0.2839   -3.5321    1.1698 C   0  0  0  0  0  3  0  0  0  0  0  0
   -1.3139   -2.6078    1.0028 O   0  0  0  0  0  0  0  0  0  0  0  0
   -1.5006   -2.1108   -0.2626 C   0  0  0  0  0  0  0  0  0  0  0  0
   -1.5919   -2.9613   -1.3681 C   0  0  0  0  0  3  0  0  0  0  0  0
   -1.7737   -2.4438   -2.6548 C   0  0  0  0  0  3  0  0  0  0  0  0
   -1.8735   -1.0688   -2.8650 C   0  0  0  0  0  3  0  0  0  0  0  0
   -1.8111   -0.2185   -1.7708 C   0  0  0  0  0  0  0  0  0  0  0  0
   -1.6426   -0.7415   -0.4512 C   0  0  0  0  0  0  0  0  0  0  0  0
   -1.5905    0.2379    0.6045 C   0  0  0  0  0  3  0  0  0  0  0  0
   -1.6200    1.4247    0.7897 C   0  0  0  0  0  3  0  0  0  0  0  0
   -1.7362    2.6605    0.0669 C   0  0  0  0  0  0  0  0  0  0  0  0
   -1.7123    3.9017    0.6821 C   0  0  0  0  0  3  0  0  0  0  0  0
   -1.8237    5.0406   -0.1150 C   0  0  0  0  0  3  0  0  0  0  0  0
   -1.9556    4.9362   -1.5052 C   0  0  0  0  0  3  0  0  0  0  0  0
   -1.9821    3.6902   -2.1320 C   0  0  0  0  0  3  0  0  0  0  0  0
   -1.8741    2.5515   -1.3497 C   0  0  0  0  0  0  0  0  0  0  0  0
   -1.8878    1.2195   -1.9128 C   0  0  0  0  0  2  0  0  0  0  0  0
   -0.6195   -4.6674    1.9879 C   0  0  0  0  0  3  0  0  0  0  0  0
   -1.9059   -5.2829    1.9939 C   0  0  0  0  0  2  0  0  0  0  0  0
   -0.6957   -5.9822    1.4402 C   0  0  0  0  0  2  0  0  0  0  0  0
  1  2  1  0
  2  3  1  0
  3  4  1  0
  4  5  1  0
  5  6  1  0
  6  7  1  0
  7  8  2  0
  7  9  1  0
  9 10  2  0
 10 11  1  0
 11 12  2  0
 12 13  1  0
 13 14  2  0
  6 15  1  0
 15 16  1  0
 16 17  1  0
 17 18  1  0
 18 19  1  0
 19 20  1  0
 20 21  2  0
 21 22  1  0
 22 23  2  0
 23 24  1  0
 24 25  2  0
 25 26  1  0
 26 27  2  0
 27 28  1  0
 28 29  2  0
 29 30  1  0
 30 31  2  0
 31 32  1  0
 32 33  2  0
 33 34  1  0
 18 35  1  0
 35 36  1  0
 36 37  1  0
 17  4  1  0
 25 20  1  0
 33 28  1  0
 37 35  1  0
 14  9  1  0
 34 24  1  0
M  RAD  8   1   2   2   3   3   3   4   2   5   3  10   2  11   2  12   2
M  RAD  8  13   2  14   2  15   3  16   3  18   2  21   2  22   2  23   2
M  RAD  8  26   2  27   2  29   2  30   2  31   2  32   2  34   3  35   2
M  RAD  2  36   3  37   3
M  END
$$$$
