AGAN230
     RDKit          3D

 36 40  0  0  0  0  0  0  0  0999 V2000
    0.6230    0.7406   -2.6233 O   0  0  0  0  0  1  0  0  0  0  0  0
    0.6113   -0.5294   -2.5726 C   0  0  0  0  0  0  0  0  0  0  0  0
   -0.0024   -1.2991   -3.3761 O   0  0  0  0  0  0  0  0  0  0  0  0
    1.3230   -1.1702   -1.4244 C   0  0  0  0  0  0  0  0  0  0  0  0
    1.4796   -2.5552   -1.3538 C   0  0  0  0  0  3  0  0  0  0  0  0
    2.0436   -3.1476   -0.2262 C   0  0  0  0  0  3  0  0  0  0  0  0
    2.4214   -2.3603    0.8597 C   0  0  0  0  0  3  0  0  0  0  0  0
    2.2688   -0.9721    0.8202 C   0  0  0  0  0  0  0  0  0  0  0  0
    2.5793   -0.1294    1.9750 C   0  0  0  0  0  0  0  0  0  0  0  0
    3.6372    0.7861    1.8466 C   0  0  0  0  0  3  0  0  0  0  0  0
    4.0035    1.6367    2.8859 C   0  0  0  0  0  3  0  0  0  0  0  0
    3.3124    1.5880    4.0876 C   0  0  0  0  0  3  0  0  0  0  0  0
    2.2540    0.6977    4.2364 C   0  0  0  0  0  3  0  0  0  0  0  0
    1.8646   -0.1541    3.1933 C   0  0  0  0  0  0  0  0  0  0  0  0
    0.4686   -1.2108    3.5823 S   0  0  0  0  0  0  0  0  0  0  0  0
   -0.5625   -0.7414    2.3222 C   0  0  0  0  0  2  0  0  0  0  0  0
   -1.3733   -0.4519    1.1902 C   0  0  0  0  0  3  0  0  0  0  0  0
   -1.9488   -1.5213    0.3903 C   0  0  0  0  0  2  0  0  0  0  0  0
   -2.4573   -1.7840   -0.8607 N   0  0  0  0  0  0  0  0  0  0  0  0
   -2.6238   -3.0323   -1.4508 C   0  0  0  0  0  0  0  0  0  0  0  0
   -2.5498   -4.1019   -0.8450 O   0  0  0  0  0  0  0  0  0  0  0  0
   -2.9496   -2.9621   -2.8975 C   0  0  0  0  0  3  0  0  0  0  0  0
   -2.6969   -4.0513   -3.7913 C   0  0  0  0  0  2  0  0  0  0  0  0
   -4.0904   -3.6402   -3.4362 C   0  0  0  0  0  2  0  0  0  0  0  0
   -2.5325   -0.5371   -1.4115 C   0  0  0  0  0  2  0  0  0  0  0  0
   -2.0102    0.7145   -0.6835 C   0  0  0  0  0  2  0  0  0  0  0  0
   -1.4082    0.8346    0.5467 N   0  0  0  0  0  0  0  0  0  0  0  0
   -0.7462    1.9488    1.0804 C   0  0  0  0  0  0  0  0  0  0  0  0
   -0.2847    2.0373    2.2183 O   0  0  0  0  0  0  0  0  0  0  0  0
   -0.5810    3.1345    0.2121 C   0  0  0  0  0  0  0  0  0  0  0  0
    0.6397    3.8094    0.2555 C   0  0  0  0  0  3  0  0  0  0  0  0
    0.8238    4.9590   -0.5078 C   0  0  0  0  0  3  0  0  0  0  0  0
   -0.2158    5.4432   -1.2986 C   0  0  0  0  0  3  0  0  0  0  0  0
   -1.4421    4.7827   -1.3224 C   0  0  0  0  0  3  0  0  0  0  0  0
   -1.6290    3.6328   -0.5597 C   0  0  0  0  0  3  0  0  0  0  0  0
    1.7508   -0.3940   -0.3445 C   0  0  0  0  0  3  0  0  0  0  0  0
  1  2  1  0
  2  3  2  0
  2  4  1  0
  4  5  2  0
  5  6  1  0
  6  7  2  0
  7  8  1  0
  8  9  1  0
  9 10  2  0
 10 11  1  0
 11 12  2  0
 12 13  1  0
 13 14  2  0
 14 15  1  0
 15 16  1  0
 16 17  1  0
 17 18  1  0
 18 19  1  0
 19 20  1  0
 20 21  2  0
 20 22  1  0
 22 23  1  0
 23 24  1  0
 19 25  1  0
 25 26  1  0
 26 27  1  0
 27 28  1  0
 28 29  2  0
 28 30  1  0
 30 31  2  0
 31 32  1  0
 32 33  2  0
 33 34  1  0
 34 35  2  0
  8 36  2  0
 36  4  1  0
 14  9  1  0
 27 17  1  0
 35 30  1  0
 24 22  1  0
M  RAD  8   1   2   5   2   6   2   7   2  10   2  11   2  12   2  13   2
M  RAD  8  16   3  17   2  18   3  22   2  23   3  24   3  25   3  26   3
M  RAD  6  31   2  32   2  33   2  34   2  35   2  36   2
M  END
$$$$
