AGAN245-df-15-CN
     RDKit          3D

 62 65  0  0  0  0  0  0  0  0999 V2000
   -4.5463    2.9230   -4.8206 N   0  0  0  0  0  0  0  0  0  0  0  0
   -5.5394    2.8462   -3.8852 C   0  0  0  0  0  0  0  0  0  0  0  0
   -6.1576    3.8500   -3.5452 O   0  0  0  0  0  0  0  0  0  0  0  0
   -5.8547    1.4581   -3.3617 C   0  0  0  0  0  0  0  0  0  0  0  0
   -4.6636    0.7626   -2.7475 C   0  0  0  0  0  0  0  0  0  0  0  0
   -4.0894   -0.3507   -3.3640 C   0  0  0  0  0  0  0  0  0  0  0  0
   -2.9735   -0.9790   -2.8022 C   0  0  0  0  0  0  0  0  0  0  0  0
   -2.4060   -0.5112   -1.6121 C   0  0  0  0  0  0  0  0  0  0  0  0
   -1.2828   -1.1328   -1.0094 N   0  0  0  0  0  0  0  0  0  0  0  0
   -0.5000   -2.1529   -1.5118 C   0  0  0  0  0  0  0  0  0  0  0  0
   -0.6154   -2.6861   -2.6069 O   0  0  0  0  0  0  0  0  0  0  0  0
    0.5928   -2.6356   -0.6182 C   0  0  0  0  0  0  0  0  0  0  0  0
    1.2497   -1.7309    0.2288 C   0  0  0  0  0  0  0  0  0  0  0  0
    0.8654   -0.4456    0.2701 F   0  0  0  0  0  0  0  0  0  0  0  0
    2.3026   -2.1225    1.0636 C   0  0  0  0  0  0  0  0  0  0  0  0
    2.9789   -1.1102    1.9486 C   0  0  0  0  0  0  0  0  0  0  0  0
    4.3727   -0.4090    1.0724 S   0  0  0  0  0  6  0  0  0  0  0  0
    5.4233   -1.4089    0.9998 O   0  0  0  0  0  0  0  0  0  0  0  0
    3.9057    0.2680   -0.1228 O   0  0  0  0  0  0  0  0  0  0  0  0
    4.9269    0.8534    2.1988 C   0  0  0  0  0  0  0  0  0  0  0  0
    5.9351    0.5641    3.1221 C   0  0  0  0  0  0  0  0  0  0  0  0
    6.3625    1.5596    4.0003 C   0  0  0  0  0  0  0  0  0  0  0  0
    5.7919    2.8328    3.9460 C   0  0  0  0  0  0  0  0  0  0  0  0
    4.7972    3.1196    3.0093 C   0  0  0  0  0  0  0  0  0  0  0  0
    4.3631    2.1307    2.1272 C   0  0  0  0  0  0  0  0  0  0  0  0
    2.7223   -3.4535    1.0307 C   0  0  0  0  0  0  0  0  0  0  0  0
    2.0793   -4.3697    0.1957 C   0  0  0  0  0  0  0  0  0  0  0  0
    1.0006   -3.9835   -0.6286 C   0  0  0  0  0  0  0  0  0  0  0  0
    0.3142   -5.0349   -1.4728 C   0  0  0  0  0  0  0  0  0  0  0  0
    0.6610   -4.9985   -2.7849 F   0  0  0  0  0  0  0  0  0  0  0  0
    0.6366   -6.3011   -1.0609 F   0  0  0  0  0  0  0  0  0  0  0  0
   -1.0435   -4.9925   -1.3968 F   0  0  0  0  0  0  0  0  0  0  0  0
   -2.9823    0.6130   -0.9704 C   0  0  0  0  0  0  0  0  0  0  0  0
   -4.1059    1.2331   -1.5517 C   0  0  0  0  0  0  0  0  0  0  0  0
   -2.4448    1.1711    0.2810 C   0  0  0  0  0  0  0  0  0  0  0  0
   -1.3391    2.0357    0.2628 C   0  0  0  0  0  0  0  0  0  0  0  0
   -0.8156    2.5494    1.4511 C   0  0  0  0  0  0  0  0  0  0  0  0
   -1.3928    2.2070    2.6720 C   0  0  0  0  0  0  0  0  0  0  0  0
   -2.4933    1.3524    2.7062 C   0  0  0  0  0  0  0  0  0  0  0  0
   -3.0166    0.8379    1.5180 C   0  0  0  0  0  0  0  0  0  0  0  0
   -4.2695    3.8575   -5.0932 H   0  0  0  0  0  0  0  0  0  0  0  0
   -3.8371    2.2022   -4.8703 H   0  0  0  0  0  0  0  0  0  0  0  0
   -6.6468    1.5389   -2.6074 H   0  0  0  0  0  0  0  0  0  0  0  0
   -6.2690    0.8702   -4.1894 H   0  0  0  0  0  0  0  0  0  0  0  0
   -4.5025   -0.7493   -4.2888 H   0  0  0  0  0  0  0  0  0  0  0  0
   -2.5760   -1.8473   -3.3190 H   0  0  0  0  0  0  0  0  0  0  0  0
   -0.9906   -0.7217   -0.1288 H   0  0  0  0  0  0  0  0  0  0  0  0
    2.2942   -0.3000    2.2179 H   0  0  0  0  0  0  0  0  0  0  0  0
    3.3478   -1.5752    2.8682 H   0  0  0  0  0  0  0  0  0  0  0  0
    6.3975   -0.4198    3.1597 H   0  0  0  0  0  0  0  0  0  0  0  0
    7.1489    1.3484    4.7214 H   0  0  0  0  0  0  0  0  0  0  0  0
    6.1338    3.6087    4.6276 H   0  0  0  0  0  0  0  0  0  0  0  0
    4.3697    4.1186    2.9610 H   0  0  0  0  0  0  0  0  0  0  0  0
    3.6006    2.3662    1.3876 H   0  0  0  0  0  0  0  0  0  0  0  0
    3.5576   -3.7904    1.6444 H   0  0  0  0  0  0  0  0  0  0  0  0
    2.4257   -5.4047    0.1914 H   0  0  0  0  0  0  0  0  0  0  0  0
   -4.5458    2.1027   -1.0618 H   0  0  0  0  0  0  0  0  0  0  0  0
   -0.8780    2.3105   -0.6844 H   0  0  0  0  0  0  0  0  0  0  0  0
    0.0382    3.2212    1.4200 H   0  0  0  0  0  0  0  0  0  0  0  0
   -0.9913    2.6133    3.5968 H   0  0  0  0  0  0  0  0  0  0  0  0
   -2.9498    1.0904    3.6574 H   0  0  0  0  0  0  0  0  0  0  0  0
   -3.8769    0.1723    1.5588 H   0  0  0  0  0  0  0  0  0  0  0  0
  1  2  1  0
  2  3  2  0
  2  4  1  0
  4  5  1  0
  5  6  2  0
  6  7  1  0
  7  8  2  0
  8  9  1  0
  9 10  1  0
 10 11  2  0
 10 12  1  0
 12 13  2  0
 13 14  1  0
 13 15  1  0
 15 16  1  0
 16 17  1  0
 17 18  2  0
 17 19  2  0
 17 20  1  0
 20 21  2  0
 21 22  1  0
 22 23  2  0
 23 24  1  0
 24 25  2  0
 15 26  2  0
 26 27  1  0
 27 28  2  0
 28 29  1  0
 29 30  1  0
 29 31  1  0
 29 32  1  0
  8 33  1  0
 33 34  2  0
 33 35  1  0
 35 36  2  0
 36 37  1  0
 37 38  2  0
 38 39  1  0
 39 40  2  0
 34  5  1  0
 40 35  1  0
 28 12  1  0
 25 20  1  0
  1 41  1  0
  1 42  1  0
  4 43  1  0
  4 44  1  0
  6 45  1  0
  7 46  1  0
  9 47  1  0
 16 48  1  0
 16 49  1  0
 21 50  1  0
 22 51  1  0
 23 52  1  0
 24 53  1  0
 25 54  1  0
 26 55  1  0
 27 56  1  0
 34 57  1  0
 36 58  1  0
 37 59  1  0
 38 60  1  0
 39 61  1  0
 40 62  1  0
M  END
$$$$
