AGAN245-df-11-CN
     RDKit          3D

 59 62  0  0  0  0  0  0  0  0999 V2000
    5.9135    0.3364   -4.7939 N   0  0  0  0  0  0  0  0  0  0  0  0
    6.0008    1.1350   -3.6867 C   0  0  0  0  0  0  0  0  0  0  0  0
    7.0283    1.7530   -3.4405 O   0  0  0  0  0  0  0  0  0  0  0  0
    4.7924    1.2507   -2.8288 C   0  0  0  0  0  0  0  0  0  0  0  0
    4.6538    2.3788   -2.0205 C   0  0  0  0  0  0  0  0  0  0  0  0
    3.5304    2.5289   -1.2004 C   0  0  0  0  0  0  0  0  0  0  0  0
    2.5305    1.5498   -1.1629 C   0  0  0  0  0  0  0  0  0  0  0  0
    1.3801    1.6715   -0.3420 N   0  0  0  0  0  0  0  0  0  0  0  0
    1.0822    2.6689    0.5646 C   0  0  0  0  0  0  0  0  0  0  0  0
    1.7838    3.6239    0.8679 O   0  0  0  0  0  0  0  0  0  0  0  0
   -0.2393    2.5534    1.2372 C   0  0  0  0  0  0  0  0  0  0  0  0
   -0.7001    1.2930    1.6370 C   0  0  0  0  0  0  0  0  0  0  0  0
    0.0327    0.1966    1.3846 F   0  0  0  0  0  0  0  0  0  0  0  0
   -1.9198    1.1287    2.3032 C   0  0  0  0  0  0  0  0  0  0  0  0
   -2.4001   -0.2536    2.6525 C   0  0  0  0  0  0  0  0  0  0  0  0
   -3.4395   -0.8442    1.3177 S   0  0  0  0  0  6  0  0  0  0  0  0
   -2.7193   -0.7649    0.0602 O   0  0  0  0  0  0  0  0  0  0  0  0
   -4.7501   -0.2339    1.4567 O   0  0  0  0  0  0  0  0  0  0  0  0
   -3.6135   -2.5723    1.7013 C   0  0  0  0  0  0  0  0  0  0  0  0
   -2.5877   -3.4536    1.3452 C   0  0  0  0  0  0  0  0  0  0  0  0
   -2.7180   -4.8097    1.6406 C   0  0  0  0  0  0  0  0  0  0  0  0
   -3.8686   -5.2777    2.2779 C   0  0  0  0  0  0  0  0  0  0  0  0
   -4.8956   -4.3942    2.6165 C   0  0  0  0  0  0  0  0  0  0  0  0
   -4.7740   -3.0357    2.3253 C   0  0  0  0  0  0  0  0  0  0  0  0
   -2.6875    2.2604    2.5863 C   0  0  0  0  0  0  0  0  0  0  0  0
   -2.2396    3.5252    2.1977 C   0  0  0  0  0  0  0  0  0  0  0  0
   -1.0197    3.6923    1.5092 C   0  0  0  0  0  0  0  0  0  0  0  0
   -0.6056    5.0787    1.0699 C   0  0  0  0  0  0  0  0  0  0  0  0
    0.3357    5.6430    1.8698 F   0  0  0  0  0  0  0  0  0  0  0  0
   -1.6585    5.9534    1.0970 F   0  0  0  0  0  0  0  0  0  0  0  0
   -0.1504    5.1329   -0.2105 F   0  0  0  0  0  0  0  0  0  0  0  0
    2.6696    0.3921   -1.9718 C   0  0  0  0  0  0  0  0  0  0  0  0
    3.8082    0.2584   -2.7937 C   0  0  0  0  0  0  0  0  0  0  0  0
    1.6761   -0.6956   -1.9820 C   0  0  0  0  0  0  0  0  0  0  0  0
    0.4452   -0.5404   -2.6382 C   0  0  0  0  0  0  0  0  0  0  0  0
   -0.5002   -1.5676   -2.6306 C   0  0  0  0  0  0  0  0  0  0  0  0
   -0.2233   -2.7673   -1.9785 C   0  0  0  0  0  0  0  0  0  0  0  0
    0.9963   -2.9402   -1.3283 C   0  0  0  0  0  0  0  0  0  0  0  0
    1.9392   -1.9100   -1.3285 C   0  0  0  0  0  0  0  0  0  0  0  0
    5.0241    0.0609   -5.1848 H   0  0  0  0  0  0  0  0  0  0  0  0
    6.7008    0.3851   -5.4285 H   0  0  0  0  0  0  0  0  0  0  0  0
    5.4180    3.1544   -2.0252 H   0  0  0  0  0  0  0  0  0  0  0  0
    3.4700    3.4324   -0.6012 H   0  0  0  0  0  0  0  0  0  0  0  0
    0.7203    0.9020   -0.4073 H   0  0  0  0  0  0  0  0  0  0  0  0
   -2.9869   -0.2538    3.5761 H   0  0  0  0  0  0  0  0  0  0  0  0
   -1.5591   -0.9429    2.7725 H   0  0  0  0  0  0  0  0  0  0  0  0
   -1.6952   -3.0961    0.8358 H   0  0  0  0  0  0  0  0  0  0  0  0
   -1.9279   -5.5056    1.3684 H   0  0  0  0  0  0  0  0  0  0  0  0
   -3.9705   -6.3373    2.5025 H   0  0  0  0  0  0  0  0  0  0  0  0
   -5.7950   -4.7684    3.1006 H   0  0  0  0  0  0  0  0  0  0  0  0
   -5.5855   -2.3574    2.5798 H   0  0  0  0  0  0  0  0  0  0  0  0
   -3.6497    2.1697    3.0902 H   0  0  0  0  0  0  0  0  0  0  0  0
   -2.8639    4.3924    2.4195 H   0  0  0  0  0  0  0  0  0  0  0  0
    3.9214   -0.6448   -3.3889 H   0  0  0  0  0  0  0  0  0  0  0  0
    0.2122    0.3890   -3.1548 H   0  0  0  0  0  0  0  0  0  0  0  0
   -1.4577   -1.4283   -3.1270 H   0  0  0  0  0  0  0  0  0  0  0  0
   -0.9631   -3.5637   -1.9761 H   0  0  0  0  0  0  0  0  0  0  0  0
    1.2148   -3.8754   -0.8197 H   0  0  0  0  0  0  0  0  0  0  0  0
    2.8844   -2.0562   -0.8087 H   0  0  0  0  0  0  0  0  0  0  0  0
  1  2  1  0
  2  3  2  0
  2  4  1  0
  4  5  2  0
  5  6  1  0
  6  7  2  0
  7  8  1  0
  8  9  1  0
  9 10  2  0
  9 11  1  0
 11 12  2  0
 12 13  1  0
 12 14  1  0
 14 15  1  0
 15 16  1  0
 16 17  2  0
 16 18  2  0
 16 19  1  0
 19 20  2  0
 20 21  1  0
 21 22  2  0
 22 23  1  0
 23 24  2  0
 14 25  2  0
 25 26  1  0
 26 27  2  0
 27 28  1  0
 28 29  1  0
 28 30  1  0
 28 31  1  0
  7 32  1  0
 32 33  2  0
 32 34  1  0
 34 35  2  0
 35 36  1  0
 36 37  2  0
 37 38  1  0
 38 39  2  0
 33  4  1  0
 39 34  1  0
 27 11  1  0
 24 19  1  0
  1 40  1  0
  1 41  1  0
  5 42  1  0
  6 43  1  0
  8 44  1  0
 15 45  1  0
 15 46  1  0
 20 47  1  0
 21 48  1  0
 22 49  1  0
 23 50  1  0
 24 51  1  0
 25 52  1  0
 26 53  1  0
 33 54  1  0
 35 55  1  0
 36 56  1  0
 37 57  1  0
 38 58  1  0
 39 59  1  0
M  END
$$$$
