AMG650
     RDKit          3D

 73 77  0  0  0  0  0  0  0  0999 V2000
    4.2033    3.5072   -2.4450 C   0  0  0  0  0  0  0  0  0  0  0  0
    3.5246    2.6012   -1.4630 C   0  0  0  0  0  0  0  0  0  0  0  0
    2.3933    1.9089   -1.8246 C   0  0  0  0  0  0  0  0  0  0  0  0
    1.8480    1.1086   -0.8534 C   0  0  0  0  0  0  0  0  0  0  0  0
    2.3751    0.9943    0.3773 N   0  0  0  0  0  0  0  0  0  0  0  0
    3.4760    1.7024    0.6651 C   0  0  0  0  0  0  0  0  0  0  0  0
    4.0662    2.5040   -0.2331 N   0  0  0  0  0  0  0  0  0  0  0  0
    4.0244    1.6023    1.9408 N   0  0  0  0  0  0  0  0  0  0  0  0
    3.6885    0.4057    2.7114 C   0  0  0  0  0  0  0  0  0  0  0  0
    4.6042   -0.7418    2.3086 C   0  0  0  0  0  0  0  0  0  0  0  0
    6.0513   -0.3027    2.4302 C   0  0  0  0  0  0  0  0  0  0  0  0
    6.3743    0.9786    1.6854 C   0  0  0  0  0  0  0  0  0  0  0  0
    5.4007    2.0709    2.1055 C   0  0  0  0  0  0  0  0  0  0  0  0
    6.8604   -1.2980    1.9818 F   0  0  0  0  0  0  0  0  0  0  0  0
    6.3555   -0.1394    3.7470 F   0  0  0  0  0  0  0  0  0  0  0  0
    0.6925    0.3467   -1.0335 N   0  0  0  0  0  0  0  0  0  0  0  0
   -0.1160    0.2742   -2.1405 C   0  0  0  0  0  0  0  0  0  0  0  0
    0.0589    0.8078   -3.2281 O   0  0  0  0  0  0  0  0  0  0  0  0
   -1.2916   -0.6049   -1.9552 C   0  0  0  0  0  0  0  0  0  0  0  0
   -2.3165   -0.3468   -1.0209 C   0  0  0  0  0  0  0  0  0  0  0  0
   -3.2961   -1.3488   -0.8635 C   0  0  0  0  0  0  0  0  0  0  0  0
   -3.2780   -2.5240   -1.6211 C   0  0  0  0  0  0  0  0  0  0  0  0
   -2.2651   -2.7498   -2.5445 C   0  0  0  0  0  0  0  0  0  0  0  0
   -1.2752   -1.7866   -2.7184 C   0  0  0  0  0  0  0  0  0  0  0  0
   -4.2585   -3.5420   -1.3869 N   0  0  0  0  0  0  0  0  0  0  0  0
   -3.8730   -4.6236   -0.1262 S   0  0  0  0  0  6  0  0  0  0  0  0
   -2.4420   -4.6716    0.0742 O   0  0  0  0  0  0  0  0  0  0  0  0
   -4.7798   -4.2873    0.9509 O   0  0  0  0  0  0  0  0  0  0  0  0
   -4.4043   -6.1682   -0.8320 C   0  0  0  0  0  0  0  0  0  0  0  0
   -3.5733   -6.5611   -2.0319 C   0  0  0  0  0  0  0  0  0  0  0  0
   -4.0330   -7.8052   -2.5567 O   0  0  0  0  0  0  0  0  0  0  0  0
   -2.4855    0.8133   -0.2576 N   0  0  0  0  0  0  0  0  0  0  0  0
   -2.1502    0.6809    1.1751 C   0  0  0  0  0  0  0  0  0  0  0  0
   -2.8651    1.7729    1.9827 C   0  0  0  0  0  0  0  0  0  0  0  0
   -2.5882    3.1452    1.4014 C   0  0  0  0  0  0  0  0  0  0  0  0
   -2.8505    4.3593    2.2634 C   0  0  0  0  0  0  0  0  0  0  0  0
   -1.4353    3.9543    1.9552 C   0  0  0  0  0  0  0  0  0  0  0  0
   -2.8966    3.2303   -0.0810 C   0  0  0  0  0  0  0  0  0  0  0  0
   -2.1549    2.1249   -0.8457 C   0  0  0  0  0  0  0  0  0  0  0  0
    4.5261    2.9397   -3.3234 H   0  0  0  0  0  0  0  0  0  0  0  0
    5.0869    3.9743   -1.9981 H   0  0  0  0  0  0  0  0  0  0  0  0
    3.5207    4.3023   -2.7609 H   0  0  0  0  0  0  0  0  0  0  0  0
    1.9779    2.0072   -2.8168 H   0  0  0  0  0  0  0  0  0  0  0  0
    2.6351    0.1176    2.6148 H   0  0  0  0  0  0  0  0  0  0  0  0
    3.8305    0.6276    3.7773 H   0  0  0  0  0  0  0  0  0  0  0  0
    4.4212   -1.6058    2.9568 H   0  0  0  0  0  0  0  0  0  0  0  0
    4.3999   -1.0639    1.2808 H   0  0  0  0  0  0  0  0  0  0  0  0
    6.3231    0.8014    0.6048 H   0  0  0  0  0  0  0  0  0  0  0  0
    7.4000    1.2916    1.9094 H   0  0  0  0  0  0  0  0  0  0  0  0
    5.5602    2.3113    3.1650 H   0  0  0  0  0  0  0  0  0  0  0  0
    5.6009    3.0041    1.5660 H   0  0  0  0  0  0  0  0  0  0  0  0
    0.4279   -0.1694   -0.2050 H   0  0  0  0  0  0  0  0  0  0  0  0
   -4.0956   -1.1872   -0.1429 H   0  0  0  0  0  0  0  0  0  0  0  0
   -2.2318   -3.6681   -3.1222 H   0  0  0  0  0  0  0  0  0  0  0  0
   -0.4722   -1.9631   -3.4317 H   0  0  0  0  0  0  0  0  0  0  0  0
   -5.1722   -3.1366   -1.1612 H   0  0  0  0  0  0  0  0  0  0  0  0
   -5.4657   -6.0825   -1.0869 H   0  0  0  0  0  0  0  0  0  0  0  0
   -4.3265   -6.9277   -0.0466 H   0  0  0  0  0  0  0  0  0  0  0  0
   -3.6221   -5.8154   -2.8309 H   0  0  0  0  0  0  0  0  0  0  0  0
   -2.5213   -6.6864   -1.7576 H   0  0  0  0  0  0  0  0  0  0  0  0
   -4.8758   -7.6477   -3.0169 H   0  0  0  0  0  0  0  0  0  0  0  0
   -2.4496   -0.2964    1.5722 H   0  0  0  0  0  0  0  0  0  0  0  0
   -1.0655    0.7728    1.3084 H   0  0  0  0  0  0  0  0  0  0  0  0
   -2.5519    1.7143    3.0317 H   0  0  0  0  0  0  0  0  0  0  0  0
   -3.9478    1.5957    1.9591 H   0  0  0  0  0  0  0  0  0  0  0  0
   -3.2339    5.2584    1.7932 H   0  0  0  0  0  0  0  0  0  0  0  0
   -3.2108    4.2112    3.2756 H   0  0  0  0  0  0  0  0  0  0  0  0
   -0.8407    3.5352    2.7599 H   0  0  0  0  0  0  0  0  0  0  0  0
   -0.8641    4.5814    1.2790 H   0  0  0  0  0  0  0  0  0  0  0  0
   -2.6168    4.2083   -0.4901 H   0  0  0  0  0  0  0  0  0  0  0  0
   -3.9786    3.1170   -0.2231 H   0  0  0  0  0  0  0  0  0  0  0  0
   -1.0806    2.3218   -0.7801 H   0  0  0  0  0  0  0  0  0  0  0  0
   -2.4555    2.1647   -1.8993 H   0  0  0  0  0  0  0  0  0  0  0  0
  1  2  1  0
  2  3  2  0
  3  4  1  0
  4  5  2  0
  5  6  1  0
  6  7  2  0
  6  8  1  0
  8  9  1  0
  9 10  1  0
 10 11  1  0
 11 12  1  0
 12 13  1  0
 11 14  1  0
 11 15  1  0
  4 16  1  0
 16 17  1  0
 17 18  2  0
 17 19  1  0
 19 20  1  0
 20 21  2  0
 21 22  1  0
 22 23  2  0
 23 24  1  0
 22 25  1  0
 25 26  1  0
 26 27  2  0
 26 28  2  0
 26 29  1  0
 29 30  1  0
 30 31  1  0
 20 32  1  0
 32 33  1  0
 33 34  1  0
 34 35  1  0
 35 36  1  0
 36 37  1  0
 35 38  1  0
 38 39  1  0
  7  2  1  0
 13  8  1  0
 24 19  2  0
 39 32  1  0
 37 35  1  0
  1 40  1  0
  1 41  1  0
  1 42  1  0
  3 43  1  0
  9 44  1  0
  9 45  1  0
 10 46  1  0
 10 47  1  0
 12 48  1  0
 12 49  1  0
 13 50  1  0
 13 51  1  0
 16 52  1  0
 21 53  1  0
 23 54  1  0
 24 55  1  0
 25 56  1  0
 29 57  1  0
 29 58  1  0
 30 59  1  0
 30 60  1  0
 31 61  1  0
 33 62  1  0
 33 63  1  0
 34 64  1  0
 34 65  1  0
 36 66  1  0
 36 67  1  0
 37 68  1  0
 37 69  1  0
 38 70  1  0
 38 71  1  0
 39 72  1  0
 39 73  1  0
M  END
$$$$
