BB_30
     RDKit          3D

 66 69  0  0  0  0  0  0  0  0999 V2000
    3.6573   -0.5439   -2.0183 C   0  0  0  0  0  0  0  0  0  0  0  0
    3.0064   -0.8186   -0.7350 N   0  0  0  0  0  0  0  0  0  0  0  0
    3.6261   -0.5207    0.4907 C   0  0  0  0  0  0  0  0  0  0  0  0
    4.9355    0.1663    0.4651 C   0  0  0  0  0  0  0  0  0  0  0  0
    5.0319    1.4956    0.0469 C   0  0  0  0  0  0  0  0  0  0  0  0
    6.2757    2.1292    0.0444 C   0  0  0  0  0  0  0  0  0  0  0  0
    7.4239    1.4418    0.4623 C   0  0  0  0  0  0  0  0  0  0  0  0
    8.7526    2.1387    0.4951 C   0  0  0  0  0  0  0  0  0  0  0  0
    7.3068    0.1202    0.9156 C   0  0  0  0  0  0  0  0  0  0  0  0
    6.0652   -0.5180    0.9199 C   0  0  0  0  0  0  0  0  0  0  0  0
    3.1737   -0.7716    1.6069 O   0  0  0  0  0  0  0  0  0  0  0  0
    1.7168   -1.4529   -0.7697 C   0  0  0  0  0  0  0  0  0  0  0  0
    1.4178   -2.4666    0.1559 C   0  0  0  0  0  0  0  0  0  0  0  0
    0.1976   -3.1506    0.1271 C   0  0  0  0  0  0  0  0  0  0  0  0
   -0.7664   -2.8435   -0.8362 C   0  0  0  0  0  0  0  0  0  0  0  0
   -2.0847   -3.5754   -0.8621 C   0  0  0  0  0  0  0  0  0  0  0  0
   -3.0496   -2.9180   -1.5649 F   0  0  0  0  0  0  0  0  0  0  0  0
   -2.6041   -3.7829    0.3789 F   0  0  0  0  0  0  0  0  0  0  0  0
   -1.9786   -4.8046   -1.4369 F   0  0  0  0  0  0  0  0  0  0  0  0
   -0.4777   -1.8448   -1.7751 C   0  0  0  0  0  0  0  0  0  0  0  0
    0.7370   -1.1384   -1.7359 C   0  0  0  0  0  0  0  0  0  0  0  0
    0.8229    0.0133   -2.5888 N   0  0  0  0  0  0  0  0  0  0  0  0
    0.5384    1.5440   -1.8945 S   0  0  0  0  0  6  0  0  0  0  0  0
   -0.8662    1.2889   -0.8379 C   0  0  0  0  0  0  0  0  0  0  0  0
   -2.1543    1.3616   -1.3712 C   0  0  0  0  0  0  0  0  0  0  0  0
   -3.2520    1.1004   -0.5492 C   0  0  0  0  0  0  0  0  0  0  0  0
   -3.0751    0.7813    0.8074 C   0  0  0  0  0  0  0  0  0  0  0  0
   -4.2556    0.4650    1.7137 C   0  0  0  0  0  0  0  0  0  0  0  0
   -5.0316   -0.7905    1.2558 C   0  0  0  0  0  0  0  0  0  0  0  0
   -6.3919   -0.4617    0.6481 C   0  0  0  0  0  0  0  0  0  0  0  0
   -7.2777    0.3325    1.6086 C   0  0  0  0  0  0  0  0  0  0  0  0
   -6.5029    1.2918    2.5132 C   0  0  0  0  0  0  0  0  0  0  0  0
   -5.1638    1.6946    1.9078 C   0  0  0  0  0  0  0  0  0  0  0  0
   -1.7720    0.7513    1.3308 C   0  0  0  0  0  0  0  0  0  0  0  0
   -0.6693    1.0108    0.5164 C   0  0  0  0  0  0  0  0  0  0  0  0
    0.1126    2.3833   -2.9963 O   0  0  0  0  0  0  0  0  0  0  0  0
    1.6649    1.9251   -1.0722 O   0  0  0  0  0  0  0  0  0  0  0  0
    3.2596   -1.1864   -2.8103 H   0  0  0  0  0  0  0  0  0  0  0  0
    3.5321    0.5078   -2.2856 H   0  0  0  0  0  0  0  0  0  0  0  0
    4.7278   -0.7598   -1.9478 H   0  0  0  0  0  0  0  0  0  0  0  0
    4.1441    2.0419   -0.2624 H   0  0  0  0  0  0  0  0  0  0  0  0
    6.3413    3.1667   -0.2771 H   0  0  0  0  0  0  0  0  0  0  0  0
    8.8929    2.6313    1.4622 H   0  0  0  0  0  0  0  0  0  0  0  0
    9.5703    1.4276    0.3374 H   0  0  0  0  0  0  0  0  0  0  0  0
    8.8188    2.8903   -0.2986 H   0  0  0  0  0  0  0  0  0  0  0  0
    8.1819   -0.4164    1.2760 H   0  0  0  0  0  0  0  0  0  0  0  0
    5.9772   -1.5386    1.2832 H   0  0  0  0  0  0  0  0  0  0  0  0
    2.1462   -2.7641    0.9080 H   0  0  0  0  0  0  0  0  0  0  0  0
    0.0086   -3.9262    0.8689 H   0  0  0  0  0  0  0  0  0  0  0  0
   -1.2350   -1.5811   -2.5121 H   0  0  0  0  0  0  0  0  0  0  0  0
    0.3457   -0.0454   -3.4878 H   0  0  0  0  0  0  0  0  0  0  0  0
   -2.3133    1.6076   -2.4183 H   0  0  0  0  0  0  0  0  0  0  0  0
   -4.2501    1.1468   -0.9786 H   0  0  0  0  0  0  0  0  0  0  0  0
   -3.8471    0.2159    2.7040 H   0  0  0  0  0  0  0  0  0  0  0  0
   -4.4445   -1.3953    0.5541 H   0  0  0  0  0  0  0  0  0  0  0  0
   -5.2023   -1.4305    2.1323 H   0  0  0  0  0  0  0  0  0  0  0  0
   -6.2519    0.1140   -0.2741 H   0  0  0  0  0  0  0  0  0  0  0  0
   -6.9059   -1.3852    0.3574 H   0  0  0  0  0  0  0  0  0  0  0  0
   -8.0156    0.8926    1.0213 H   0  0  0  0  0  0  0  0  0  0  0  0
   -7.8526   -0.3571    2.2388 H   0  0  0  0  0  0  0  0  0  0  0  0
   -6.3274    0.8113    3.4841 H   0  0  0  0  0  0  0  0  0  0  0  0
   -7.1116    2.1808    2.7135 H   0  0  0  0  0  0  0  0  0  0  0  0
   -4.6628    2.4200    2.5609 H   0  0  0  0  0  0  0  0  0  0  0  0
   -5.3468    2.2144    0.9590 H   0  0  0  0  0  0  0  0  0  0  0  0
   -1.6024    0.5163    2.3803 H   0  0  0  0  0  0  0  0  0  0  0  0
    0.3333    0.9678    0.9402 H   0  0  0  0  0  0  0  0  0  0  0  0
  1  2  1  0
  2  3  1  0
  3  4  1  0
  4  5  2  0
  5  6  1  0
  6  7  2  0
  7  8  1  0
  7  9  1  0
  9 10  2  0
  3 11  2  0
  2 12  1  0
 12 13  2  0
 13 14  1  0
 14 15  2  0
 15 16  1  0
 16 17  1  0
 16 18  1  0
 16 19  1  0
 15 20  1  0
 20 21  2  0
 21 22  1  0
 22 23  1  0
 23 24  1  0
 24 25  2  0
 25 26  1  0
 26 27  2  0
 27 28  1  0
 28 29  1  0
 29 30  1  0
 30 31  1  0
 31 32  1  0
 32 33  1  0
 27 34  1  0
 34 35  2  0
 23 36  2  0
 23 37  2  0
 10  4  1  0
 21 12  1  0
 35 24  1  0
 33 28  1  0
  1 38  1  0
  1 39  1  0
  1 40  1  0
  5 41  1  0
  6 42  1  0
  8 43  1  0
  8 44  1  0
  8 45  1  0
  9 46  1  0
 10 47  1  0
 13 48  1  0
 14 49  1  0
 20 50  1  0
 22 51  1  0
 25 52  1  0
 26 53  1  0
 28 54  1  0
 29 55  1  0
 29 56  1  0
 30 57  1  0
 30 58  1  0
 31 59  1  0
 31 60  1  0
 32 61  1  0
 32 62  1  0
 33 63  1  0
 33 64  1  0
 34 65  1  0
 35 66  1  0
M  END
$$$$
