BB_42
     RDKit          3D

 70 75  0  0  0  0  0  0  0  0999 V2000
   -0.7698   -1.3028   -0.8605 C   0  0  0  0  0  0  0  0  0  0  0  0
   -1.1442   -2.4006   -1.6606 C   0  0  0  0  0  0  0  0  0  0  0  0
   -2.3488   -3.0676   -1.4485 C   0  0  0  0  0  0  0  0  0  0  0  0
   -3.1911   -2.6451   -0.4289 C   0  0  0  0  0  0  0  0  0  0  0  0
   -2.8537   -1.5412    0.3582 C   0  0  0  0  0  0  0  0  0  0  0  0
   -1.6469   -0.8431    0.1586 C   0  0  0  0  0  0  0  0  0  0  0  0
   -1.3367    0.3141    0.9053 N   0  0  0  0  0  0  0  0  0  0  0  0
   -1.6733    1.5544    0.1656 C   0  0  0  0  0  0  0  0  0  0  0  0
   -0.9883    2.7552    0.8327 C   0  0  0  0  0  0  0  0  0  0  0  0
   -1.3224    2.8185    2.3111 C   0  0  0  0  0  0  0  0  0  0  0  0
   -1.0614    1.5105    3.0332 C   0  0  0  0  0  0  0  0  0  0  0  0
   -1.7644    0.3496    2.3163 C   0  0  0  0  0  0  0  0  0  0  0  0
   -1.0576    4.1107    3.0502 C   0  0  0  0  0  0  0  0  0  0  0  0
   -2.4729    3.6904    2.7659 C   0  0  0  0  0  0  0  0  0  0  0  0
   -4.4429   -3.3032   -0.2435 N   0  0  0  0  0  0  0  0  0  0  0  0
   -5.7803   -2.6585   -1.0564 S   0  0  0  0  0  6  0  0  0  0  0  0
   -5.7724   -3.5942   -2.5749 C   0  0  0  0  0  0  0  0  0  0  0  0
   -7.0679   -3.3601   -3.3272 C   0  0  0  0  0  0  0  0  0  0  0  0
   -8.1128   -4.1828   -2.8137 O   0  0  0  0  0  0  0  0  0  0  0  0
   -6.9367   -3.0830   -0.2919 O   0  0  0  0  0  0  0  0  0  0  0  0
   -5.5580   -1.2612   -1.3511 O   0  0  0  0  0  0  0  0  0  0  0  0
    0.5338   -0.6803   -1.1449 C   0  0  0  0  0  0  0  0  0  0  0  0
    1.7086   -0.4959    0.0875 S   0  0  0  0  0  0  0  0  0  0  0  0
    2.8296    0.1995   -1.0395 C   0  0  0  0  0  0  0  0  0  0  0  0
    2.1996    0.2232   -2.2903 C   0  0  0  0  0  0  0  0  0  0  0  0
    0.9233   -0.3134   -2.3465 N   0  0  0  0  0  0  0  0  0  0  0  0
    2.8746    0.7754   -3.3940 C   0  0  0  0  0  0  0  0  0  0  0  0
    4.1474    1.3056   -3.2254 C   0  0  0  0  0  0  0  0  0  0  0  0
    4.7542    1.2758   -1.9723 C   0  0  0  0  0  0  0  0  0  0  0  0
    4.1436    0.7122   -0.8265 C   0  0  0  0  0  0  0  0  0  0  0  0
    4.8098    0.7052    0.4003 N   0  0  0  0  0  0  0  0  0  0  0  0
    5.7617    1.7686    0.7326 C   0  0  0  0  0  0  0  0  0  0  0  0
    5.9592    1.8091    2.2369 C   0  0  0  0  0  0  0  0  0  0  0  0
    6.5203    0.4838    2.7126 C   0  0  0  0  0  0  0  0  0  0  0  0
    6.1615   -0.7165    1.8597 C   0  0  0  0  0  0  0  0  0  0  0  0
    4.7991   -0.5120    1.2204 C   0  0  0  0  0  0  0  0  0  0  0  0
    7.8779    0.5709    2.7779 F   0  0  0  0  0  0  0  0  0  0  0  0
    6.1042    0.2710    3.9906 F   0  0  0  0  0  0  0  0  0  0  0  0
   -0.4813   -2.7379   -2.4563 H   0  0  0  0  0  0  0  0  0  0  0  0
   -2.6086   -3.9177   -2.0716 H   0  0  0  0  0  0  0  0  0  0  0  0
   -3.5661   -1.1960    1.1005 H   0  0  0  0  0  0  0  0  0  0  0  0
   -2.7618    1.6990    0.1629 H   0  0  0  0  0  0  0  0  0  0  0  0
   -1.3435    1.5061   -0.8789 H   0  0  0  0  0  0  0  0  0  0  0  0
    0.0997    2.6637    0.7243 H   0  0  0  0  0  0  0  0  0  0  0  0
   -1.2869    3.6764    0.3187 H   0  0  0  0  0  0  0  0  0  0  0  0
    0.0208    1.3306    3.0544 H   0  0  0  0  0  0  0  0  0  0  0  0
   -1.4024    1.5567    4.0741 H   0  0  0  0  0  0  0  0  0  0  0  0
   -2.8505    0.4869    2.3900 H   0  0  0  0  0  0  0  0  0  0  0  0
   -1.4981   -0.5874    2.8200 H   0  0  0  0  0  0  0  0  0  0  0  0
   -0.6571    4.9529    2.4963 H   0  0  0  0  0  0  0  0  0  0  0  0
   -0.7092    4.0608    4.0761 H   0  0  0  0  0  0  0  0  0  0  0  0
   -3.0800    3.3618    3.6023 H   0  0  0  0  0  0  0  0  0  0  0  0
   -3.0275    4.2529    2.0226 H   0  0  0  0  0  0  0  0  0  0  0  0
   -4.6981   -3.4754    0.7314 H   0  0  0  0  0  0  0  0  0  0  0  0
   -5.6527   -4.6496   -2.3133 H   0  0  0  0  0  0  0  0  0  0  0  0
   -4.9178   -3.2447   -3.1603 H   0  0  0  0  0  0  0  0  0  0  0  0
   -7.3948   -2.3158   -3.3028 H   0  0  0  0  0  0  0  0  0  0  0  0
   -6.9350   -3.6466   -4.3751 H   0  0  0  0  0  0  0  0  0  0  0  0
   -8.2953   -3.9004   -1.8942 H   0  0  0  0  0  0  0  0  0  0  0  0
    2.3887    0.7921   -4.3643 H   0  0  0  0  0  0  0  0  0  0  0  0
    4.6706    1.7393   -4.0736 H   0  0  0  0  0  0  0  0  0  0  0  0
    5.7595    1.6856   -1.9010 H   0  0  0  0  0  0  0  0  0  0  0  0
    6.7208    1.5973    0.2284 H   0  0  0  0  0  0  0  0  0  0  0  0
    5.3759    2.7423    0.4065 H   0  0  0  0  0  0  0  0  0  0  0  0
    5.0010    2.0074    2.7331 H   0  0  0  0  0  0  0  0  0  0  0  0
    6.6383    2.6253    2.5062 H   0  0  0  0  0  0  0  0  0  0  0  0
    6.9200   -0.8581    1.0796 H   0  0  0  0  0  0  0  0  0  0  0  0
    6.1572   -1.6252    2.4716 H   0  0  0  0  0  0  0  0  0  0  0  0
    4.0331   -0.4254    1.9997 H   0  0  0  0  0  0  0  0  0  0  0  0
    4.5752   -1.3991    0.6156 H   0  0  0  0  0  0  0  0  0  0  0  0
  1  2  2  0
  2  3  1  0
  3  4  2  0
  4  5  1  0
  5  6  2  0
  6  7  1  0
  7  8  1  0
  8  9  1  0
  9 10  1  0
 10 11  1  0
 11 12  1  0
 10 13  1  0
 13 14  1  0
  4 15  1  0
 15 16  1  0
 16 17  1  0
 17 18  1  0
 18 19  1  0
 16 20  2  0
 16 21  2  0
  1 22  1  0
 22 23  1  0
 23 24  1  0
 24 25  2  0
 25 26  1  0
 25 27  1  0
 27 28  2  0
 28 29  1  0
 29 30  2  0
 30 31  1  0
 31 32  1  0
 32 33  1  0
 33 34  1  0
 34 35  1  0
 35 36  1  0
 34 37  1  0
 34 38  1  0
  6  1  1  0
 12  7  1  0
 26 22  2  0
 36 31  1  0
 14 10  1  0
 30 24  1  0
  2 39  1  0
  3 40  1  0
  5 41  1  0
  8 42  1  0
  8 43  1  0
  9 44  1  0
  9 45  1  0
 11 46  1  0
 11 47  1  0
 12 48  1  0
 12 49  1  0
 13 50  1  0
 13 51  1  0
 14 52  1  0
 14 53  1  0
 15 54  1  0
 17 55  1  0
 17 56  1  0
 18 57  1  0
 18 58  1  0
 19 59  1  0
 27 60  1  0
 28 61  1  0
 29 62  1  0
 32 63  1  0
 32 64  1  0
 33 65  1  0
 33 66  1  0
 35 67  1  0
 35 68  1  0
 36 69  1  0
 36 70  1  0
M  END
$$$$
