BB_9
     RDKit          3D

 73 75  0  0  0  0  0  0  0  0999 V2000
    8.5989    2.3173    0.0677 C   0  0  0  0  0  0  0  0  0  0  0  0
    7.7994    2.7871    1.2116 N   0  0  0  0  0  0  0  0  0  0  0  0
    7.6891    1.7916    2.2912 C   0  0  0  0  0  0  0  0  0  0  0  0
    6.4072    3.6990    0.8570 S   0  0  0  0  0  6  0  0  0  0  0  0
    5.3131    2.4988    0.1225 C   0  0  0  0  0  0  0  0  0  0  0  0
    4.4301    1.7803    0.9320 C   0  0  0  0  0  0  0  0  0  0  0  0
    3.5499    0.8514    0.3568 C   0  0  0  0  0  0  0  0  0  0  0  0
    2.6065    0.0755    1.2357 C   0  0  0  0  0  0  0  0  0  0  0  0
    3.5480    0.6657   -1.0400 C   0  0  0  0  0  0  0  0  0  0  0  0
    2.6533   -0.2599   -1.5075 O   0  0  0  0  0  0  0  0  0  0  0  0
    2.5361   -0.4180   -2.9214 C   0  0  0  0  0  0  0  0  0  0  0  0
    1.4252   -1.4004   -3.2132 C   0  0  0  0  0  0  0  0  0  0  0  0
    0.1688   -1.2581   -2.6015 C   0  0  0  0  0  0  0  0  0  0  0  0
   -0.8760   -2.1517   -2.8801 C   0  0  0  0  0  0  0  0  0  0  0  0
   -2.2238   -2.0014   -2.2092 C   0  0  0  0  0  0  0  0  0  0  0  0
   -2.6131   -3.1903   -1.4132 N   0  0  0  0  0  0  0  0  0  0  0  0
   -1.7450   -3.4273   -0.2423 C   0  0  0  0  0  0  0  0  0  0  0  0
   -4.2839   -3.4021   -1.1731 S   0  0  0  0  0  6  0  0  0  0  0  0
   -4.9542   -3.1911   -2.4393 O   0  0  0  0  0  0  0  0  0  0  0  0
   -4.7138   -2.0420   -0.1074 C   0  0  0  0  0  0  0  0  0  0  0  0
   -5.1612   -0.8431   -0.6590 C   0  0  0  0  0  0  0  0  0  0  0  0
   -5.5093    0.2150    0.1849 C   0  0  0  0  0  0  0  0  0  0  0  0
   -5.4342    0.0964    1.5886 C   0  0  0  0  0  0  0  0  0  0  0  0
   -5.8290    1.2863    2.4834 C   0  0  0  0  0  0  0  0  0  0  0  0
   -4.9372    2.5029    2.1531 C   0  0  0  0  0  0  0  0  0  0  0  0
   -5.6776    1.0084    3.9961 C   0  0  0  0  0  0  0  0  0  0  0  0
   -7.3067    1.6559    2.2320 C   0  0  0  0  0  0  0  0  0  0  0  0
   -5.0057   -1.1363    2.1134 C   0  0  0  0  0  0  0  0  0  0  0  0
   -4.6548   -2.2009    1.2764 C   0  0  0  0  0  0  0  0  0  0  0  0
   -4.4867   -4.6230   -0.4215 O   0  0  0  0  0  0  0  0  0  0  0  0
   -0.6568   -3.1888   -3.7964 C   0  0  0  0  0  0  0  0  0  0  0  0
    0.5826   -3.3321   -4.4183 C   0  0  0  0  0  0  0  0  0  0  0  0
    1.6175   -2.4416   -4.1310 C   0  0  0  0  0  0  0  0  0  0  0  0
    4.4234    1.4083   -1.8404 C   0  0  0  0  0  0  0  0  0  0  0  0
    5.3006    2.3302   -1.2628 C   0  0  0  0  0  0  0  0  0  0  0  0
    6.7440    4.6606   -0.1719 O   0  0  0  0  0  0  0  0  0  0  0  0
    5.8086    4.1217    2.1057 O   0  0  0  0  0  0  0  0  0  0  0  0
    9.5950    2.0210    0.4128 H   0  0  0  0  0  0  0  0  0  0  0  0
    8.7433    3.1124   -0.6687 H   0  0  0  0  0  0  0  0  0  0  0  0
    8.1293    1.4548   -0.4132 H   0  0  0  0  0  0  0  0  0  0  0  0
    7.1726    0.8917    1.9461 H   0  0  0  0  0  0  0  0  0  0  0  0
    8.6904    1.5067    2.6309 H   0  0  0  0  0  0  0  0  0  0  0  0
    7.1664    2.2028    3.1589 H   0  0  0  0  0  0  0  0  0  0  0  0
    4.4224    1.9457    2.0079 H   0  0  0  0  0  0  0  0  0  0  0  0
    2.7770   -0.9997    1.1195 H   0  0  0  0  0  0  0  0  0  0  0  0
    2.7497    0.3202    2.2935 H   0  0  0  0  0  0  0  0  0  0  0  0
    1.5689    0.3101    0.9769 H   0  0  0  0  0  0  0  0  0  0  0  0
    3.4827   -0.7980   -3.3240 H   0  0  0  0  0  0  0  0  0  0  0  0
    2.2818    0.5351   -3.4014 H   0  0  0  0  0  0  0  0  0  0  0  0
    0.0134   -0.4448   -1.8940 H   0  0  0  0  0  0  0  0  0  0  0  0
   -2.9504   -1.8090   -3.0067 H   0  0  0  0  0  0  0  0  0  0  0  0
   -2.2228   -1.1168   -1.5606 H   0  0  0  0  0  0  0  0  0  0  0  0
   -1.6984   -2.5430    0.3997 H   0  0  0  0  0  0  0  0  0  0  0  0
   -0.7310   -3.6761   -0.5699 H   0  0  0  0  0  0  0  0  0  0  0  0
   -2.0933   -4.2797    0.3473 H   0  0  0  0  0  0  0  0  0  0  0  0
   -5.2495   -0.7220   -1.7364 H   0  0  0  0  0  0  0  0  0  0  0  0
   -5.8536    1.1408   -0.2729 H   0  0  0  0  0  0  0  0  0  0  0  0
   -5.1733    3.3540    2.8026 H   0  0  0  0  0  0  0  0  0  0  0  0
   -3.8762    2.2629    2.2902 H   0  0  0  0  0  0  0  0  0  0  0  0
   -5.0664    2.8441    1.1202 H   0  0  0  0  0  0  0  0  0  0  0  0
   -4.6420    0.7637    4.2595 H   0  0  0  0  0  0  0  0  0  0  0  0
   -6.3180    0.1799    4.3206 H   0  0  0  0  0  0  0  0  0  0  0  0
   -5.9625    1.8856    4.5894 H   0  0  0  0  0  0  0  0  0  0  0  0
   -7.9659    0.8021    2.4294 H   0  0  0  0  0  0  0  0  0  0  0  0
   -7.4840    1.9761    1.1994 H   0  0  0  0  0  0  0  0  0  0  0  0
   -7.6242    2.4797    2.8819 H   0  0  0  0  0  0  0  0  0  0  0  0
   -4.9425   -1.3041    3.1856 H   0  0  0  0  0  0  0  0  0  0  0  0
   -4.3442   -3.1472    1.7144 H   0  0  0  0  0  0  0  0  0  0  0  0
   -1.4557   -3.8938   -4.0212 H   0  0  0  0  0  0  0  0  0  0  0  0
    0.7413   -4.1415   -5.1265 H   0  0  0  0  0  0  0  0  0  0  0  0
    2.5763   -2.5712   -4.6279 H   0  0  0  0  0  0  0  0  0  0  0  0
    4.4466    1.2995   -2.9201 H   0  0  0  0  0  0  0  0  0  0  0  0
    5.9632    2.9137   -1.8988 H   0  0  0  0  0  0  0  0  0  0  0  0
  1  2  1  0
  2  3  1  0
  2  4  1  0
  4  5  1  0
  5  6  2  0
  6  7  1  0
  7  8  1  0
  7  9  2  0
  9 10  1  0
 10 11  1  0
 11 12  1  0
 12 13  2  0
 13 14  1  0
 14 15  1  0
 15 16  1  0
 16 17  1  0
 16 18  1  0
 18 19  2  0
 18 20  1  0
 20 21  2  0
 21 22  1  0
 22 23  2  0
 23 24  1  0
 24 25  1  0
 24 26  1  0
 24 27  1  0
 23 28  1  0
 28 29  2  0
 18 30  2  0
 14 31  2  0
 31 32  1  0
 32 33  2  0
  9 34  1  0
 34 35  2  0
  4 36  2  0
  4 37  2  0
 35  5  1  0
 33 12  1  0
 29 20  1  0
  1 38  1  0
  1 39  1  0
  1 40  1  0
  3 41  1  0
  3 42  1  0
  3 43  1  0
  6 44  1  0
  8 45  1  0
  8 46  1  0
  8 47  1  0
 11 48  1  0
 11 49  1  0
 13 50  1  0
 15 51  1  0
 15 52  1  0
 17 53  1  0
 17 54  1  0
 17 55  1  0
 21 56  1  0
 22 57  1  0
 25 58  1  0
 25 59  1  0
 25 60  1  0
 26 61  1  0
 26 62  1  0
 26 63  1  0
 27 64  1  0
 27 65  1  0
 27 66  1  0
 28 67  1  0
 29 68  1  0
 31 69  1  0
 32 70  1  0
 33 71  1  0
 34 72  1  0
 35 73  1  0
M  END
$$$$
