
     RDKit          3D

 49 51  0  0  0  0  0  0  0  0999 V2000
  129.5840  113.7740  132.7630 C   0  0  0  0  0  0  0  0  0  0  0  0
  129.9900  114.9530  132.2770 C   0  0  0  0  0  0  0  0  0  0  0  0
  130.9760  115.0530  131.1890 C   0  0  0  0  0  0  0  0  0  0  0  0
  131.1080  113.9350  130.3500 C   0  0  0  0  0  0  0  0  0  0  0  0
  132.0200  113.9440  129.2970 C   0  0  0  0  0  0  0  0  0  0  0  0
  132.8050  115.0700  129.0760 C   0  0  0  0  0  0  0  0  0  0  0  0
  132.6820  116.1900  129.9040 C   0  0  0  0  0  0  0  0  0  0  0  0
  131.7690  116.2020  130.9650 C   0  0  0  0  0  0  0  0  0  0  0  0
  131.6100  117.3190  131.8230 N   0  0  0  0  0  0  0  0  0  0  0  0
  131.1620  118.5820  131.5000 C   0  0  0  0  0  0  0  0  0  0  0  0
  130.7900  118.9770  130.4040 O   0  0  0  0  0  0  0  0  0  0  0  0
  131.1330  119.5600  132.6200 C   0  0  0  0  0  0  0  0  0  0  0  0
  131.8310  120.7790  132.5360 C   0  0  0  0  0  0  0  0  0  0  0  0
  132.7280  121.1160  131.3660 C   0  0  0  0  0  0  0  0  0  0  0  0
  133.5590  122.1670  131.6030 F   0  0  0  0  0  0  0  0  0  0  0  0
  133.4850  120.0720  130.9420 F   0  0  0  0  0  0  0  0  0  0  0  0
  132.0030  121.4950  130.2680 F   0  0  0  0  0  0  0  0  0  0  0  0
  131.6940  121.7070  133.5870 C   0  0  0  0  0  0  0  0  0  0  0  0
  130.8930  121.4330  134.6990 C   0  0  0  0  0  0  0  0  0  0  0  0
  130.2080  120.2190  134.7900 C   0  0  0  0  0  0  0  0  0  0  0  0
  129.3080  119.9170  135.9580 C   0  0  0  0  0  0  0  0  0  0  0  0
  130.1270  118.8650  137.1480 S   0  0  0  0  0  6  0  0  0  0  0  0
  130.3440  119.6240  138.3680 O   0  0  0  0  0  0  0  0  0  0  0  0
  131.2520  118.2390  136.4780 O   0  0  0  0  0  0  0  0  0  0  0  0
  128.9590  117.5750  137.5110 C   0  0  0  0  0  0  0  0  0  0  0  0
  128.8390  116.4830  136.6440 C   0  0  0  0  0  0  0  0  0  0  0  0
  127.9470  115.4590  136.9560 C   0  0  0  0  0  0  0  0  0  0  0  0
  127.1720  115.5360  138.1150 C   0  0  0  0  0  0  0  0  0  0  0  0
  127.2760  116.6410  138.9600 C   0  0  0  0  0  0  0  0  0  0  0  0
  128.1680  117.6700  138.6580 C   0  0  0  0  0  0  0  0  0  0  0  0
  130.3460  119.2940  133.7490 C   0  0  0  0  0  0  0  0  0  0  0  0
  129.6880  118.1270  133.8510 F   0  0  0  0  0  0  0  0  0  0  0  0
  128.8450  113.7397  133.5771 H   0  0  0  0  0  0  0  0  0  0  0  0
  129.9893  112.8392  132.3484 H   0  0  0  0  0  0  0  0  0  0  0  0
  129.5734  115.8770  132.7044 H   0  0  0  0  0  0  0  0  0  0  0  0
  130.4862  113.0447  130.5256 H   0  0  0  0  0  0  0  0  0  0  0  0
  132.1186  113.0646  128.6436 H   0  0  0  0  0  0  0  0  0  0  0  0
  133.5264  115.0798  128.2457 H   0  0  0  0  0  0  0  0  0  0  0  0
  133.3110  117.0733  129.7192 H   0  0  0  0  0  0  0  0  0  0  0  0
  131.8160  117.1330  132.7980 H   0  0  0  0  0  0  0  0  0  0  0  0
  132.2284  122.6669  133.5313 H   0  0  0  0  0  0  0  0  0  0  0  0
  130.8017  122.1757  135.5052 H   0  0  0  0  0  0  0  0  0  0  0  0
  129.0260  120.8609  136.4474 H   0  0  0  0  0  0  0  0  0  0  0  0
  128.4160  119.3928  135.5846 H   0  0  0  0  0  0  0  0  0  0  0  0
  129.4426  116.4336  135.7257 H   0  0  0  0  0  0  0  0  0  0  0  0
  127.8533  114.5894  136.2889 H   0  0  0  0  0  0  0  0  0  0  0  0
  126.4759  114.7211  138.3629 H   0  0  0  0  0  0  0  0  0  0  0  0
  126.6540  116.7009  139.8653 H   0  0  0  0  0  0  0  0  0  0  0  0
  128.2476  118.5474  139.3166 H   0  0  0  0  0  0  0  0  0  0  0  0
  1  2  2  0
  2  3  1  0
  3  4  2  0
  4  5  1  0
  5  6  2  0
  6  7  1  0
  7  8  2  0
  8  9  1  0
  9 10  1  0
 10 11  2  0
 10 12  1  0
 12 13  2  0
 13 14  1  0
 14 15  1  0
 14 16  1  0
 14 17  1  0
 13 18  1  0
 18 19  2  0
 19 20  1  0
 20 21  1  0
 21 22  1  0
 22 23  2  0
 22 24  2  0
 22 25  1  0
 25 26  2  0
 26 27  1  0
 27 28  2  0
 28 29  1  0
 29 30  2  0
 20 31  2  0
 31 32  1  0
  8  3  1  0
 31 12  1  0
 30 25  1  0
  1 33  1  0
  1 34  1  0
  2 35  1  0
  4 36  1  0
  5 37  1  0
  6 38  1  0
  7 39  1  0
  9 40  1  0
 18 41  1  0
 19 42  1  0
 21 43  1  0
 21 44  1  0
 26 45  1  0
 27 46  1  0
 28 47  1  0
 29 48  1  0
 30 49  1  0
M  END
$$$$

     RDKit          3D

 49 51  0  0  0  0  0  0  0  0999 V2000
  129.2740  113.8880  132.5530 C   0  0  0  0  0  0  0  0  0  0  0  0
  130.0230  114.9780  132.3490 C   0  0  0  0  0  0  0  0  0  0  0  0
  131.0070  115.0560  131.2580 C   0  0  0  0  0  0  0  0  0  0  0  0
  131.1980  113.8950  130.4930 C   0  0  0  0  0  0  0  0  0  0  0  0
  132.1120  113.8820  129.4420 C   0  0  0  0  0  0  0  0  0  0  0  0
  132.8420  115.0290  129.1490 C   0  0  0  0  0  0  0  0  0  0  0  0
  132.6600  116.1930  129.9030 C   0  0  0  0  0  0  0  0  0  0  0  0
  131.7430  116.2260  130.9610 C   0  0  0  0  0  0  0  0  0  0  0  0
  131.5250  117.3870  131.7460 N   0  0  0  0  0  0  0  0  0  0  0  0
  131.1320  118.6380  131.3220 C   0  0  0  0  0  0  0  0  0  0  0  0
  130.8710  118.9840  130.1780 O   0  0  0  0  0  0  0  0  0  0  0  0
  131.0170  119.6720  132.3860 C   0  0  0  0  0  0  0  0  0  0  0  0
  131.8430  120.8100  132.3820 C   0  0  0  0  0  0  0  0  0  0  0  0
  132.9560  120.9970  131.3750 C   0  0  0  0  0  0  0  0  0  0  0  0
  133.6940  119.8750  131.1640 F   0  0  0  0  0  0  0  0  0  0  0  0
  132.5280  121.4480  130.1680 F   0  0  0  0  0  0  0  0  0  0  0  0
  133.8650  121.9300  131.7970 F   0  0  0  0  0  0  0  0  0  0  0  0
  131.6290  121.8000  133.3610 C   0  0  0  0  0  0  0  0  0  0  0  0
  130.6280  121.6640  134.3260 C   0  0  0  0  0  0  0  0  0  0  0  0
  129.8130  120.5290  134.3390 C   0  0  0  0  0  0  0  0  0  0  0  0
  128.7020  120.3770  135.3430 C   0  0  0  0  0  0  0  0  0  0  0  0
  129.2510  119.4650  136.7780 S   0  0  0  0  0  6  0  0  0  0  0  0
  128.6180  120.0300  137.9580 O   0  0  0  0  0  0  0  0  0  0  0  0
  130.6980  119.3690  136.7100 O   0  0  0  0  0  0  0  0  0  0  0  0
  128.6150  117.8200  136.5560 C   0  0  0  0  0  0  0  0  0  0  0  0
  127.2720  117.5490  136.8410 C   0  0  0  0  0  0  0  0  0  0  0  0
  126.7740  116.2660  136.6280 C   0  0  0  0  0  0  0  0  0  0  0  0
  127.6160  115.2590  136.1520 C   0  0  0  0  0  0  0  0  0  0  0  0
  128.9620  115.5280  135.8970 C   0  0  0  0  0  0  0  0  0  0  0  0
  129.4690  116.8110  136.1040 C   0  0  0  0  0  0  0  0  0  0  0  0
  130.0270  119.5420  133.3690 C   0  0  0  0  0  0  0  0  0  0  0  0
  129.2430  118.4520  133.3960 F   0  0  0  0  0  0  0  0  0  0  0  0
  128.5483  113.8661  133.3793 H   0  0  0  0  0  0  0  0  0  0  0  0
  129.3841  113.0139  131.8944 H   0  0  0  0  0  0  0  0  0  0  0  0
  129.8991  115.8425  133.0178 H   0  0  0  0  0  0  0  0  0  0  0  0
  130.6211  112.9877  130.7253 H   0  0  0  0  0  0  0  0  0  0  0  0
  132.2558  112.9685  128.8463 H   0  0  0  0  0  0  0  0  0  0  0  0
  133.5657  115.0207  128.3206 H   0  0  0  0  0  0  0  0  0  0  0  0
  133.2442  117.0934  129.6620 H   0  0  0  0  0  0  0  0  0  0  0  0
  131.6370  117.2480  132.7440 H   0  0  0  0  0  0  0  0  0  0  0  0
  132.2632  122.6988  133.3657 H   0  0  0  0  0  0  0  0  0  0  0  0
  130.4809  122.4531  135.0782 H   0  0  0  0  0  0  0  0  0  0  0  0
  128.3647  121.3751  135.6592 H   0  0  0  0  0  0  0  0  0  0  0  0
  127.8782  119.8218  134.8707 H   0  0  0  0  0  0  0  0  0  0  0  0
  126.6159  118.3418  137.2296 H   0  0  0  0  0  0  0  0  0  0  0  0
  125.7163  116.0457  136.8350 H   0  0  0  0  0  0  0  0  0  0  0  0
  127.2169  114.2490  135.9771 H   0  0  0  0  0  0  0  0  0  0  0  0
  129.6231  114.7278  135.5327 H   0  0  0  0  0  0  0  0  0  0  0  0
  130.5308  117.0261  135.9132 H   0  0  0  0  0  0  0  0  0  0  0  0
  1  2  2  0
  2  3  1  0
  3  4  2  0
  4  5  1  0
  5  6  2  0
  6  7  1  0
  7  8  2  0
  8  9  1  0
  9 10  1  0
 10 11  2  0
 10 12  1  0
 12 13  2  0
 13 14  1  0
 14 15  1  0
 14 16  1  0
 14 17  1  0
 13 18  1  0
 18 19  2  0
 19 20  1  0
 20 21  1  0
 21 22  1  0
 22 23  2  0
 22 24  2  0
 22 25  1  0
 25 26  2  0
 26 27  1  0
 27 28  2  0
 28 29  1  0
 29 30  2  0
 20 31  2  0
 31 32  1  0
  8  3  1  0
 31 12  1  0
 30 25  1  0
  1 33  1  0
  1 34  1  0
  2 35  1  0
  4 36  1  0
  5 37  1  0
  6 38  1  0
  7 39  1  0
  9 40  1  0
 18 41  1  0
 19 42  1  0
 21 43  1  0
 21 44  1  0
 26 45  1  0
 27 46  1  0
 28 47  1  0
 29 48  1  0
 30 49  1  0
M  END
$$$$

     RDKit          3D

 49 51  0  0  0  0  0  0  0  0999 V2000
  129.9190  114.0030  132.5640 C   0  0  0  0  0  0  0  0  0  0  0  0
  129.9370  114.6890  131.4140 C   0  0  0  0  0  0  0  0  0  0  0  0
  131.1340  114.7520  130.5610 C   0  0  0  0  0  0  0  0  0  0  0  0
  131.3810  113.6450  129.7340 C   0  0  0  0  0  0  0  0  0  0  0  0
  132.4940  113.6230  128.8950 C   0  0  0  0  0  0  0  0  0  0  0  0
  133.3660  114.7050  128.8790 C   0  0  0  0  0  0  0  0  0  0  0  0
  133.1300  115.8140  129.6980 C   0  0  0  0  0  0  0  0  0  0  0  0
  132.0160  115.8570  130.5440 C   0  0  0  0  0  0  0  0  0  0  0  0
  131.7380  116.9650  131.3850 N   0  0  0  0  0  0  0  0  0  0  0  0
  131.3840  118.2450  131.0150 C   0  0  0  0  0  0  0  0  0  0  0  0
  131.2180  118.6680  129.8800 O   0  0  0  0  0  0  0  0  0  0  0  0
  131.1850  119.2060  132.1330 C   0  0  0  0  0  0  0  0  0  0  0  0
  131.8850  120.4260  132.1720 C   0  0  0  0  0  0  0  0  0  0  0  0
  132.9460  120.7820  131.1550 C   0  0  0  0  0  0  0  0  0  0  0  0
  133.8160  119.7690  130.8980 F   0  0  0  0  0  0  0  0  0  0  0  0
  132.4410  121.2100  129.9690 F   0  0  0  0  0  0  0  0  0  0  0  0
  133.7380  121.8100  131.5920 F   0  0  0  0  0  0  0  0  0  0  0  0
  131.5900  121.3380  133.2060 C   0  0  0  0  0  0  0  0  0  0  0  0
  130.6330  121.0460  134.1810 C   0  0  0  0  0  0  0  0  0  0  0  0
  129.9460  119.8300  134.1510 C   0  0  0  0  0  0  0  0  0  0  0  0
  128.8820  119.5100  135.1670 C   0  0  0  0  0  0  0  0  0  0  0  0
  129.6070  119.0100  136.7220 S   0  0  0  0  0  6  0  0  0  0  0  0
  129.5110  120.1190  137.6570 O   0  0  0  0  0  0  0  0  0  0  0  0
  130.9020  118.4200  136.4330 O   0  0  0  0  0  0  0  0  0  0  0  0
  128.5660  117.7010  137.3220 C   0  0  0  0  0  0  0  0  0  0  0  0
  128.1730  117.6850  138.6650 C   0  0  0  0  0  0  0  0  0  0  0  0
  127.3270  116.6750  139.1170 C   0  0  0  0  0  0  0  0  0  0  0  0
  126.8920  115.6810  138.2380 C   0  0  0  0  0  0  0  0  0  0  0  0
  127.3100  115.6860  136.9060 C   0  0  0  0  0  0  0  0  0  0  0  0
  128.1550  116.6950  136.4440 C   0  0  0  0  0  0  0  0  0  0  0  0
  130.2400  118.9210  133.1280 C   0  0  0  0  0  0  0  0  0  0  0  0
  129.5780  117.7530  133.1130 F   0  0  0  0  0  0  0  0  0  0  0  0
  129.0051  113.9787  133.1757 H   0  0  0  0  0  0  0  0  0  0  0  0
  130.8181  113.4638  132.8969 H   0  0  0  0  0  0  0  0  0  0  0  0
  129.0284  115.2220  131.0973 H   0  0  0  0  0  0  0  0  0  0  0  0
  130.6910  112.7884  129.7481 H   0  0  0  0  0  0  0  0  0  0  0  0
  132.6813  112.7530  128.2484 H   0  0  0  0  0  0  0  0  0  0  0  0
  134.2459  114.6892  128.2191 H   0  0  0  0  0  0  0  0  0  0  0  0
  133.8289  116.6632  129.6769 H   0  0  0  0  0  0  0  0  0  0  0  0
  131.7670  116.7580  132.3760 H   0  0  0  0  0  0  0  0  0  0  0  0
  132.1241  122.2988  133.2458 H   0  0  0  0  0  0  0  0  0  0  0  0
  130.4196  121.7764  134.9754 H   0  0  0  0  0  0  0  0  0  0  0  0
  128.2613  120.4033  135.3307 H   0  0  0  0  0  0  0  0  0  0  0  0
  128.2710  118.6797  134.7834 H   0  0  0  0  0  0  0  0  0  0  0  0
  128.5288  118.4625  139.3570 H   0  0  0  0  0  0  0  0  0  0  0  0
  127.0012  116.6604  140.1675 H   0  0  0  0  0  0  0  0  0  0  0  0
  126.2167  114.8903  138.5968 H   0  0  0  0  0  0  0  0  0  0  0  0
  126.9730  114.8942  136.2208 H   0  0  0  0  0  0  0  0  0  0  0  0
  128.4947  116.6986  135.3978 H   0  0  0  0  0  0  0  0  0  0  0  0
  1  2  2  0
  2  3  1  0
  3  4  2  0
  4  5  1  0
  5  6  2  0
  6  7  1  0
  7  8  2  0
  8  9  1  0
  9 10  1  0
 10 11  2  0
 10 12  1  0
 12 13  2  0
 13 14  1  0
 14 15  1  0
 14 16  1  0
 14 17  1  0
 13 18  1  0
 18 19  2  0
 19 20  1  0
 20 21  1  0
 21 22  1  0
 22 23  2  0
 22 24  2  0
 22 25  1  0
 25 26  2  0
 26 27  1  0
 27 28  2  0
 28 29  1  0
 29 30  2  0
 20 31  2  0
 31 32  1  0
  8  3  1  0
 31 12  1  0
 30 25  1  0
  1 33  1  0
  1 34  1  0
  2 35  1  0
  4 36  1  0
  5 37  1  0
  6 38  1  0
  7 39  1  0
  9 40  1  0
 18 41  1  0
 19 42  1  0
 21 43  1  0
 21 44  1  0
 26 45  1  0
 27 46  1  0
 28 47  1  0
 29 48  1  0
 30 49  1  0
M  END
$$$$

     RDKit          3D

 49 51  0  0  0  0  0  0  0  0999 V2000
  126.8160  115.4350  132.0910 C   0  0  0  0  0  0  0  0  0  0  0  0
  127.8630  116.1810  131.7190 C   0  0  0  0  0  0  0  0  0  0  0  0
  129.0770  115.5880  131.1370 C   0  0  0  0  0  0  0  0  0  0  0  0
  128.8990  114.4780  130.2960 C   0  0  0  0  0  0  0  0  0  0  0  0
  129.9950  113.8550  129.7040 C   0  0  0  0  0  0  0  0  0  0  0  0
  131.2760  114.3350  129.9490 C   0  0  0  0  0  0  0  0  0  0  0  0
  131.4670  115.4410  130.7840 C   0  0  0  0  0  0  0  0  0  0  0  0
  130.3780  116.0830  131.3860 C   0  0  0  0  0  0  0  0  0  0  0  0
  130.5280  117.2090  132.2330 N   0  0  0  0  0  0  0  0  0  0  0  0
  130.6550  118.5340  131.8730 C   0  0  0  0  0  0  0  0  0  0  0  0
  130.6370  118.9980  130.7420 O   0  0  0  0  0  0  0  0  0  0  0  0
  130.8300  119.4930  132.9970 C   0  0  0  0  0  0  0  0  0  0  0  0
  131.6330  120.6390  132.8520 C   0  0  0  0  0  0  0  0  0  0  0  0
  132.4410  120.9070  131.6020 C   0  0  0  0  0  0  0  0  0  0  0  0
  133.1380  119.8250  131.1620 F   0  0  0  0  0  0  0  0  0  0  0  0
  131.7000  121.3760  130.5650 F   0  0  0  0  0  0  0  0  0  0  0  0
  133.3950  121.8650  131.8150 F   0  0  0  0  0  0  0  0  0  0  0  0
  131.6900  121.5600  133.9170 C   0  0  0  0  0  0  0  0  0  0  0  0
  130.9790  121.3460  135.1010 C   0  0  0  0  0  0  0  0  0  0  0  0
  130.1900  120.2030  135.2510 C   0  0  0  0  0  0  0  0  0  0  0  0
  129.3830  119.9710  136.5010 C   0  0  0  0  0  0  0  0  0  0  0  0
  130.1540  118.7450  137.5480 S   0  0  0  0  0  6  0  0  0  0  0  0
  130.4110  119.3400  138.8480 O   0  0  0  0  0  0  0  0  0  0  0  0
  131.2450  118.1510  136.7970 O   0  0  0  0  0  0  0  0  0  0  0  0
  128.9260  117.4770  137.7620 C   0  0  0  0  0  0  0  0  0  0  0  0
  128.0100  117.5680  138.8160 C   0  0  0  0  0  0  0  0  0  0  0  0
  127.0290  116.5890  138.9540 C   0  0  0  0  0  0  0  0  0  0  0  0
  126.9760  115.5210  138.0560 C   0  0  0  0  0  0  0  0  0  0  0  0
  127.9100  115.4210  137.0240 C   0  0  0  0  0  0  0  0  0  0  0  0
  128.8950  116.3980  136.8760 C   0  0  0  0  0  0  0  0  0  0  0  0
  130.1350  119.2850  134.1960 C   0  0  0  0  0  0  0  0  0  0  0  0
  129.3800  118.1870  134.3550 F   0  0  0  0  0  0  0  0  0  0  0  0
  125.9249  115.9142  132.5227 H   0  0  0  0  0  0  0  0  0  0  0  0
  126.8465  114.3427  131.9650 H   0  0  0  0  0  0  0  0  0  0  0  0
  127.8143  117.2718  131.8526 H   0  0  0  0  0  0  0  0  0  0  0  0
  127.8853  114.0971  130.1030 H   0  0  0  0  0  0  0  0  0  0  0  0
  129.8473  112.9866  129.0452 H   0  0  0  0  0  0  0  0  0  0  0  0
  132.1433  113.8432  129.4844 H   0  0  0  0  0  0  0  0  0  0  0  0
  132.4860  115.8111  130.9701 H   0  0  0  0  0  0  0  0  0  0  0  0
  130.4950  116.9980  133.2240 H   0  0  0  0  0  0  0  0  0  0  0  0
  132.3063  122.4653  133.8144 H   0  0  0  0  0  0  0  0  0  0  0  0
  131.0409  122.0802  135.9177 H   0  0  0  0  0  0  0  0  0  0  0  0
  129.3011  120.9170  137.0563 H   0  0  0  0  0  0  0  0  0  0  0  0
  128.3872  119.6051  136.2104 H   0  0  0  0  0  0  0  0  0  0  0  0
  128.0642  118.4044  139.5284 H   0  0  0  0  0  0  0  0  0  0  0  0
  126.2955  116.6572  139.7709 H   0  0  0  0  0  0  0  0  0  0  0  0
  126.1941  114.7547  138.1626 H   0  0  0  0  0  0  0  0  0  0  0  0
  127.8696  114.5712  136.3267 H   0  0  0  0  0  0  0  0  0  0  0  0
  129.6393  116.3192  136.0699 H   0  0  0  0  0  0  0  0  0  0  0  0
  1  2  2  0
  2  3  1  0
  3  4  2  0
  4  5  1  0
  5  6  2  0
  6  7  1  0
  7  8  2  0
  8  9  1  0
  9 10  1  0
 10 11  2  0
 10 12  1  0
 12 13  2  0
 13 14  1  0
 14 15  1  0
 14 16  1  0
 14 17  1  0
 13 18  1  0
 18 19  2  0
 19 20  1  0
 20 21  1  0
 21 22  1  0
 22 23  2  0
 22 24  2  0
 22 25  1  0
 25 26  2  0
 26 27  1  0
 27 28  2  0
 28 29  1  0
 29 30  2  0
 20 31  2  0
 31 32  1  0
  8  3  1  0
 31 12  1  0
 30 25  1  0
  1 33  1  0
  1 34  1  0
  2 35  1  0
  4 36  1  0
  5 37  1  0
  6 38  1  0
  7 39  1  0
  9 40  1  0
 18 41  1  0
 19 42  1  0
 21 43  1  0
 21 44  1  0
 26 45  1  0
 27 46  1  0
 28 47  1  0
 29 48  1  0
 30 49  1  0
M  END
$$$$

     RDKit          3D

 49 51  0  0  0  0  0  0  0  0999 V2000
  127.9700  115.8990  130.9860 C   0  0  0  0  0  0  0  0  0  0  0  0
  129.0820  115.4460  131.5780 C   0  0  0  0  0  0  0  0  0  0  0  0
  130.3410  115.2630  130.8390 C   0  0  0  0  0  0  0  0  0  0  0  0
  130.4490  114.1080  130.0480 C   0  0  0  0  0  0  0  0  0  0  0  0
  131.6080  113.8560  129.3170 C   0  0  0  0  0  0  0  0  0  0  0  0
  132.6670  114.7560  129.3730 C   0  0  0  0  0  0  0  0  0  0  0  0
  132.5710  115.9110  130.1570 C   0  0  0  0  0  0  0  0  0  0  0  0
  131.4130  116.1830  130.8960 C   0  0  0  0  0  0  0  0  0  0  0  0
  131.2750  117.3440  131.6970 N   0  0  0  0  0  0  0  0  0  0  0  0
  131.0690  118.6420  131.2840 C   0  0  0  0  0  0  0  0  0  0  0  0
  130.9410  119.0420  130.1350 O   0  0  0  0  0  0  0  0  0  0  0  0
  130.9950  119.6590  132.3670 C   0  0  0  0  0  0  0  0  0  0  0  0
  131.8610  120.7670  132.3810 C   0  0  0  0  0  0  0  0  0  0  0  0
  132.9760  120.9340  131.3730 C   0  0  0  0  0  0  0  0  0  0  0  0
  133.9030  121.8610  131.7340 F   0  0  0  0  0  0  0  0  0  0  0  0
  133.6290  119.7780  131.0880 F   0  0  0  0  0  0  0  0  0  0  0  0
  132.5020  121.3770  130.1670 F   0  0  0  0  0  0  0  0  0  0  0  0
  131.6860  121.7460  133.3800 C   0  0  0  0  0  0  0  0  0  0  0  0
  130.6840  121.6260  134.3460 C   0  0  0  0  0  0  0  0  0  0  0  0
  129.8300  120.5210  134.3410 C   0  0  0  0  0  0  0  0  0  0  0  0
  128.7180  120.3900  135.3480 C   0  0  0  0  0  0  0  0  0  0  0  0
  129.2560  119.4780  136.7880 S   0  0  0  0  0  6  0  0  0  0  0  0
  128.6240  120.0520  137.9630 O   0  0  0  0  0  0  0  0  0  0  0  0
  130.7020  119.3720  136.7240 O   0  0  0  0  0  0  0  0  0  0  0  0
  128.6080  117.8370  136.5680 C   0  0  0  0  0  0  0  0  0  0  0  0
  129.4410  116.8200  136.0910 C   0  0  0  0  0  0  0  0  0  0  0  0
  128.9340  115.5290  135.9570 C   0  0  0  0  0  0  0  0  0  0  0  0
  127.6020  115.2640  136.2810 C   0  0  0  0  0  0  0  0  0  0  0  0
  126.7680  116.2900  136.7290 C   0  0  0  0  0  0  0  0  0  0  0  0
  127.2680  117.5840  136.8690 C   0  0  0  0  0  0  0  0  0  0  0  0
  130.0050  119.5460  133.3530 C   0  0  0  0  0  0  0  0  0  0  0  0
  129.1820  118.4840  133.3630 F   0  0  0  0  0  0  0  0  0  0  0  0
  127.0469  116.0230  131.5712 H   0  0  0  0  0  0  0  0  0  0  0  0
  127.9795  116.1472  129.9144 H   0  0  0  0  0  0  0  0  0  0  0  0
  129.0535  115.2030  132.6505 H   0  0  0  0  0  0  0  0  0  0  0  0
  129.6115  113.3961  130.0051 H   0  0  0  0  0  0  0  0  0  0  0  0
  131.6852  112.9496  128.6985 H   0  0  0  0  0  0  0  0  0  0  0  0
  133.5841  114.5589  128.7984 H   0  0  0  0  0  0  0  0  0  0  0  0
  133.4160  116.6144  130.1933 H   0  0  0  0  0  0  0  0  0  0  0  0
  131.2910  117.1700  132.6950 H   0  0  0  0  0  0  0  0  0  0  0  0
  132.3515  122.6216  133.3993 H   0  0  0  0  0  0  0  0  0  0  0  0
  130.5672  122.4051  135.1137 H   0  0  0  0  0  0  0  0  0  0  0  0
  128.3952  121.3945  135.6592 H   0  0  0  0  0  0  0  0  0  0  0  0
  127.8860  119.8436  134.8798 H   0  0  0  0  0  0  0  0  0  0  0  0
  130.4859  117.0370  135.8243 H   0  0  0  0  0  0  0  0  0  0  0  0
  129.5836  114.7181  135.5957 H   0  0  0  0  0  0  0  0  0  0  0  0
  127.2078  114.2418  136.1828 H   0  0  0  0  0  0  0  0  0  0  0  0
  125.7163  116.0775  136.9716 H   0  0  0  0  0  0  0  0  0  0  0  0
  126.6131  118.3980  137.2133 H   0  0  0  0  0  0  0  0  0  0  0  0
  1  2  2  0
  2  3  1  0
  3  4  2  0
  4  5  1  0
  5  6  2  0
  6  7  1  0
  7  8  2  0
  8  9  1  0
  9 10  1  0
 10 11  2  0
 10 12  1  0
 12 13  2  0
 13 14  1  0
 14 15  1  0
 14 16  1  0
 14 17  1  0
 13 18  1  0
 18 19  2  0
 19 20  1  0
 20 21  1  0
 21 22  1  0
 22 23  2  0
 22 24  2  0
 22 25  1  0
 25 26  2  0
 26 27  1  0
 27 28  2  0
 28 29  1  0
 29 30  2  0
 20 31  2  0
 31 32  1  0
  8  3  1  0
 31 12  1  0
 30 25  1  0
  1 33  1  0
  1 34  1  0
  2 35  1  0
  4 36  1  0
  5 37  1  0
  6 38  1  0
  7 39  1  0
  9 40  1  0
 18 41  1  0
 19 42  1  0
 21 43  1  0
 21 44  1  0
 26 45  1  0
 27 46  1  0
 28 47  1  0
 29 48  1  0
 30 49  1  0
M  END
$$$$

     RDKit          3D

 49 51  0  0  0  0  0  0  0  0999 V2000
  135.1910  117.0400  129.3190 C   0  0  0  0  0  0  0  0  0  0  0  0
  133.8540  117.0920  129.3500 C   0  0  0  0  0  0  0  0  0  0  0  0
  133.0300  115.8950  129.5780 C   0  0  0  0  0  0  0  0  0  0  0  0
  133.2750  114.7910  128.7470 C   0  0  0  0  0  0  0  0  0  0  0  0
  132.5390  113.6170  128.8940 C   0  0  0  0  0  0  0  0  0  0  0  0
  131.5530  113.5400  129.8710 C   0  0  0  0  0  0  0  0  0  0  0  0
  131.3000  114.6330  130.7060 C   0  0  0  0  0  0  0  0  0  0  0  0
  132.0320  115.8200  130.5760 C   0  0  0  0  0  0  0  0  0  0  0  0
  131.8110  116.9480  131.4060 N   0  0  0  0  0  0  0  0  0  0  0  0
  130.6280  117.6180  131.6330 C   0  0  0  0  0  0  0  0  0  0  0  0
  129.5260  117.3500  131.1760 O   0  0  0  0  0  0  0  0  0  0  0  0
  130.7180  118.7950  132.5390 C   0  0  0  0  0  0  0  0  0  0  0  0
  131.3890  119.9650  132.1410 C   0  0  0  0  0  0  0  0  0  0  0  0
  132.1420  120.0600  130.8330 C   0  0  0  0  0  0  0  0  0  0  0  0
  132.2940  121.3340  130.3820 F   0  0  0  0  0  0  0  0  0  0  0  0
  133.3690  119.4800  130.8680 F   0  0  0  0  0  0  0  0  0  0  0  0
  131.4780  119.4180  129.8220 F   0  0  0  0  0  0  0  0  0  0  0  0
  131.3640  121.0810  133.0020 C   0  0  0  0  0  0  0  0  0  0  0  0
  130.7000  121.0360  134.2300 C   0  0  0  0  0  0  0  0  0  0  0  0
  130.0430  119.8710  134.6320 C   0  0  0  0  0  0  0  0  0  0  0  0
  129.2860  119.8120  135.9330 C   0  0  0  0  0  0  0  0  0  0  0  0
  130.1720  118.8470  137.1500 S   0  0  0  0  0  6  0  0  0  0  0  0
  130.4330  119.6870  138.3060 O   0  0  0  0  0  0  0  0  0  0  0  0
  131.2740  118.1900  136.4710 O   0  0  0  0  0  0  0  0  0  0  0  0
  129.0390  117.5720  137.6470 C   0  0  0  0  0  0  0  0  0  0  0  0
  128.2090  117.7730  138.7560 C   0  0  0  0  0  0  0  0  0  0  0  0
  127.2990  116.7810  139.1160 C   0  0  0  0  0  0  0  0  0  0  0  0
  127.2320  115.5940  138.3840 C   0  0  0  0  0  0  0  0  0  0  0  0
  128.0820  115.3880  137.2960 C   0  0  0  0  0  0  0  0  0  0  0  0
  128.9950  116.3760  136.9270 C   0  0  0  0  0  0  0  0  0  0  0  0
  130.0690  118.7600  133.7810 C   0  0  0  0  0  0  0  0  0  0  0  0
  129.4400  117.6440  134.1820 F   0  0  0  0  0  0  0  0  0  0  0  0
  135.7732  117.9571  129.1458 H   0  0  0  0  0  0  0  0  0  0  0  0
  135.7077  116.0802  129.4667 H   0  0  0  0  0  0  0  0  0  0  0  0
  133.3553  118.0610  129.2002 H   0  0  0  0  0  0  0  0  0  0  0  0
  134.0544  114.8530  127.9733 H   0  0  0  0  0  0  0  0  0  0  0  0
  132.7373  112.7551  128.2400 H   0  0  0  0  0  0  0  0  0  0  0  0
  130.9691  112.6151  129.9878 H   0  0  0  0  0  0  0  0  0  0  0  0
  130.5163  114.5595  131.4744 H   0  0  0  0  0  0  0  0  0  0  0  0
  132.6280  117.2590  131.9190 H   0  0  0  0  0  0  0  0  0  0  0  0
  131.8777  122.0058  132.7007 H   0  0  0  0  0  0  0  0  0  0  0  0
  130.6945  121.9213  134.8828 H   0  0  0  0  0  0  0  0  0  0  0  0
  129.1488  120.8342  136.3155 H   0  0  0  0  0  0  0  0  0  0  0  0
  128.3124  119.3340  135.7494 H   0  0  0  0  0  0  0  0  0  0  0  0
  128.2744  118.7045  139.3374 H   0  0  0  0  0  0  0  0  0  0  0  0
  126.6327  116.9333  139.9779 H   0  0  0  0  0  0  0  0  0  0  0  0
  126.5059  114.8173  138.6660 H   0  0  0  0  0  0  0  0  0  0  0  0
  128.0318  114.4464  136.7295 H   0  0  0  0  0  0  0  0  0  0  0  0
  129.6740  116.2146  136.0768 H   0  0  0  0  0  0  0  0  0  0  0  0
  1  2  2  0
  2  3  1  0
  3  4  2  0
  4  5  1  0
  5  6  2  0
  6  7  1  0
  7  8  2  0
  8  9  1  0
  9 10  1  0
 10 11  2  0
 10 12  1  0
 12 13  2  0
 13 14  1  0
 14 15  1  0
 14 16  1  0
 14 17  1  0
 13 18  1  0
 18 19  2  0
 19 20  1  0
 20 21  1  0
 21 22  1  0
 22 23  2  0
 22 24  2  0
 22 25  1  0
 25 26  2  0
 26 27  1  0
 27 28  2  0
 28 29  1  0
 29 30  2  0
 20 31  2  0
 31 32  1  0
  8  3  1  0
 31 12  1  0
 30 25  1  0
  1 33  1  0
  1 34  1  0
  2 35  1  0
  4 36  1  0
  5 37  1  0
  6 38  1  0
  7 39  1  0
  9 40  1  0
 18 41  1  0
 19 42  1  0
 21 43  1  0
 21 44  1  0
 26 45  1  0
 27 46  1  0
 28 47  1  0
 29 48  1  0
 30 49  1  0
M  END
$$$$

     RDKit          3D

 49 51  0  0  0  0  0  0  0  0999 V2000
  130.7630  115.3290  131.5450 C   0  0  0  0  0  0  0  0  0  0  0  0
  129.4800  115.5830  131.2600 C   0  0  0  0  0  0  0  0  0  0  0  0
  128.4030  114.6420  131.6050 C   0  0  0  0  0  0  0  0  0  0  0  0
  128.1510  113.6060  130.6920 C   0  0  0  0  0  0  0  0  0  0  0  0
  127.1480  112.6720  130.9400 C   0  0  0  0  0  0  0  0  0  0  0  0
  126.3880  112.7690  132.1000 C   0  0  0  0  0  0  0  0  0  0  0  0
  126.6300  113.7960  133.0180 C   0  0  0  0  0  0  0  0  0  0  0  0
  127.6360  114.7420  132.7890 C   0  0  0  0  0  0  0  0  0  0  0  0
  127.9160  115.7940  133.6960 N   0  0  0  0  0  0  0  0  0  0  0  0
  128.5570  115.7190  134.9140 C   0  0  0  0  0  0  0  0  0  0  0  0
  129.0340  114.7220  135.4390 O   0  0  0  0  0  0  0  0  0  0  0  0
  128.6770  117.0000  135.6600 C   0  0  0  0  0  0  0  0  0  0  0  0
  127.9170  117.2370  136.8200 C   0  0  0  0  0  0  0  0  0  0  0  0
  126.8690  116.2630  137.3120 C   0  0  0  0  0  0  0  0  0  0  0  0
  126.0450  115.8080  136.3310 F   0  0  0  0  0  0  0  0  0  0  0  0
  127.3870  115.1850  137.9560 F   0  0  0  0  0  0  0  0  0  0  0  0
  126.0280  116.8460  138.2220 F   0  0  0  0  0  0  0  0  0  0  0  0
  128.1370  118.4300  137.5370 C   0  0  0  0  0  0  0  0  0  0  0  0
  129.0790  119.3700  137.1120 C   0  0  0  0  0  0  0  0  0  0  0  0
  129.8260  119.1430  135.9540 C   0  0  0  0  0  0  0  0  0  0  0  0
  130.8750  120.1220  135.4970 C   0  0  0  0  0  0  0  0  0  0  0  0
  130.2610  121.1520  134.1720 S   0  0  0  0  0  6  0  0  0  0  0  0
  130.6040  122.5340  134.4600 O   0  0  0  0  0  0  0  0  0  0  0  0
  128.8760  120.7860  133.9370 O   0  0  0  0  0  0  0  0  0  0  0  0
  131.1770  120.6530  132.7320 C   0  0  0  0  0  0  0  0  0  0  0  0
  130.8010  119.5010  132.0340 C   0  0  0  0  0  0  0  0  0  0  0  0
  131.5020  119.1380  130.8860 C   0  0  0  0  0  0  0  0  0  0  0  0
  132.5800  119.9120  130.4520 C   0  0  0  0  0  0  0  0  0  0  0  0
  132.9680  121.0450  131.1690 C   0  0  0  0  0  0  0  0  0  0  0  0
  132.2700  121.4170  132.3180 C   0  0  0  0  0  0  0  0  0  0  0  0
  129.6060  117.9600  135.2370 C   0  0  0  0  0  0  0  0  0  0  0  0
  130.3250  117.7560  134.1220 F   0  0  0  0  0  0  0  0  0  0  0  0
  131.5416  116.0564  131.2717 H   0  0  0  0  0  0  0  0  0  0  0  0
  131.0388  114.3928  132.0525 H   0  0  0  0  0  0  0  0  0  0  0  0
  129.2230  116.5243  130.7522 H   0  0  0  0  0  0  0  0  0  0  0  0
  128.7507  113.5312  129.7729 H   0  0  0  0  0  0  0  0  0  0  0  0
  126.9581  111.8612  130.2212 H   0  0  0  0  0  0  0  0  0  0  0  0
  125.5928  112.0348  132.2967 H   0  0  0  0  0  0  0  0  0  0  0  0
  126.0217  113.8612  133.9322 H   0  0  0  0  0  0  0  0  0  0  0  0
  127.6400  116.7140  133.3730 H   0  0  0  0  0  0  0  0  0  0  0  0
  127.5552  118.6251  138.4499 H   0  0  0  0  0  0  0  0  0  0  0  0
  129.2329  120.2922  137.6915 H   0  0  0  0  0  0  0  0  0  0  0  0
  131.1634  120.7611  136.3446 H   0  0  0  0  0  0  0  0  0  0  0  0
  131.7425  119.5564  135.1262 H   0  0  0  0  0  0  0  0  0  0  0  0
  129.9596  118.8872  132.3880 H   0  0  0  0  0  0  0  0  0  0  0  0
  131.2061  118.2415  130.3214 H   0  0  0  0  0  0  0  0  0  0  0  0
  133.1262  119.6275  129.5405 H   0  0  0  0  0  0  0  0  0  0  0  0
  133.8246  121.6448  130.8278 H   0  0  0  0  0  0  0  0  0  0  0  0
  132.5776  122.3034  132.8922 H   0  0  0  0  0  0  0  0  0  0  0  0
  1  2  2  0
  2  3  1  0
  3  4  2  0
  4  5  1  0
  5  6  2  0
  6  7  1  0
  7  8  2  0
  8  9  1  0
  9 10  1  0
 10 11  2  0
 10 12  1  0
 12 13  2  0
 13 14  1  0
 14 15  1  0
 14 16  1  0
 14 17  1  0
 13 18  1  0
 18 19  2  0
 19 20  1  0
 20 21  1  0
 21 22  1  0
 22 23  2  0
 22 24  2  0
 22 25  1  0
 25 26  2  0
 26 27  1  0
 27 28  2  0
 28 29  1  0
 29 30  2  0
 20 31  2  0
 31 32  1  0
  8  3  1  0
 31 12  1  0
 30 25  1  0
  1 33  1  0
  1 34  1  0
  2 35  1  0
  4 36  1  0
  5 37  1  0
  6 38  1  0
  7 39  1  0
  9 40  1  0
 18 41  1  0
 19 42  1  0
 21 43  1  0
 21 44  1  0
 26 45  1  0
 27 46  1  0
 28 47  1  0
 29 48  1  0
 30 49  1  0
M  END
$$$$

     RDKit          3D

 49 51  0  0  0  0  0  0  0  0999 V2000
  129.1480  120.7340  133.5500 C   0  0  0  0  0  0  0  0  0  0  0  0
  130.4490  120.5430  133.7980 C   0  0  0  0  0  0  0  0  0  0  0  0
  131.4440  120.4480  132.7190 C   0  0  0  0  0  0  0  0  0  0  0  0
  132.1260  121.6270  132.3800 C   0  0  0  0  0  0  0  0  0  0  0  0
  133.0830  121.6250  131.3680 C   0  0  0  0  0  0  0  0  0  0  0  0
  133.3640  120.4460  130.6870 C   0  0  0  0  0  0  0  0  0  0  0  0
  132.6920  119.2640  131.0160 C   0  0  0  0  0  0  0  0  0  0  0  0
  131.7300  119.2450  132.0320 C   0  0  0  0  0  0  0  0  0  0  0  0
  131.0310  118.0670  132.4000 N   0  0  0  0  0  0  0  0  0  0  0  0
  130.3240  117.2090  131.5860 C   0  0  0  0  0  0  0  0  0  0  0  0
  130.1820  117.2870  130.3740 O   0  0  0  0  0  0  0  0  0  0  0  0
  129.6660  116.0650  132.2730 C   0  0  0  0  0  0  0  0  0  0  0  0
  130.0770  114.7410  132.0310 C   0  0  0  0  0  0  0  0  0  0  0  0
  131.1220  114.3970  130.9930 C   0  0  0  0  0  0  0  0  0  0  0  0
  130.6070  114.1740  129.7550 F   0  0  0  0  0  0  0  0  0  0  0  0
  132.1020  115.3300  130.8770 F   0  0  0  0  0  0  0  0  0  0  0  0
  131.7770  113.2360  131.3050 F   0  0  0  0  0  0  0  0  0  0  0  0
  129.4810  113.7050  132.7770 C   0  0  0  0  0  0  0  0  0  0  0  0
  128.4970  113.9700  133.7320 C   0  0  0  0  0  0  0  0  0  0  0  0
  128.0780  115.2820  133.9660 C   0  0  0  0  0  0  0  0  0  0  0  0
  127.0480  115.5970  135.0170 C   0  0  0  0  0  0  0  0  0  0  0  0
  127.7760  115.6090  136.6490 S   0  0  0  0  0  6  0  0  0  0  0  0
  128.8510  114.6320  136.6850 O   0  0  0  0  0  0  0  0  0  0  0  0
  126.6930  115.5270  137.6130 O   0  0  0  0  0  0  0  0  0  0  0  0
  128.5010  117.2220  136.8240 C   0  0  0  0  0  0  0  0  0  0  0  0
  129.8930  117.3650  136.8040 C   0  0  0  0  0  0  0  0  0  0  0  0
  130.4500  118.6370  136.9050 C   0  0  0  0  0  0  0  0  0  0  0  0
  129.6230  119.7540  137.0430 C   0  0  0  0  0  0  0  0  0  0  0  0
  128.2370  119.6030  137.0910 C   0  0  0  0  0  0  0  0  0  0  0  0
  127.6690  118.3320  136.9880 C   0  0  0  0  0  0  0  0  0  0  0  0
  128.6660  116.3130  133.2230 C   0  0  0  0  0  0  0  0  0  0  0  0
  128.2510  117.5700  133.4510 F   0  0  0  0  0  0  0  0  0  0  0  0
  128.4331  120.7999  134.3834 H   0  0  0  0  0  0  0  0  0  0  0  0
  128.7934  120.8251  132.5127 H   0  0  0  0  0  0  0  0  0  0  0  0
  130.7849  120.4542  134.8417 H   0  0  0  0  0  0  0  0  0  0  0  0
  131.9029  122.5602  132.9180 H   0  0  0  0  0  0  0  0  0  0  0  0
  133.6143  122.5526  131.1086 H   0  0  0  0  0  0  0  0  0  0  0  0
  134.1180  120.4426  129.8860 H   0  0  0  0  0  0  0  0  0  0  0  0
  132.9227  118.3379  130.4692 H   0  0  0  0  0  0  0  0  0  0  0  0
  131.1080  117.8210  133.3800 H   0  0  0  0  0  0  0  0  0  0  0  0
  129.7973  112.6658  132.6036 H   0  0  0  0  0  0  0  0  0  0  0  0
  128.0501  113.1423  134.3022 H   0  0  0  0  0  0  0  0  0  0  0  0
  126.6145  116.5865  134.8098 H   0  0  0  0  0  0  0  0  0  0  0  0
  126.2700  114.8199  134.9874 H   0  0  0  0  0  0  0  0  0  0  0  0
  130.5408  116.4810  136.7094 H   0  0  0  0  0  0  0  0  0  0  0  0
  131.5424  118.7624  136.8761 H   0  0  0  0  0  0  0  0  0  0  0  0
  130.0668  120.7580  137.1142 H   0  0  0  0  0  0  0  0  0  0  0  0
  127.5915  120.4857  137.2100 H   0  0  0  0  0  0  0  0  0  0  0  0
  126.5773  118.2058  137.0355 H   0  0  0  0  0  0  0  0  0  0  0  0
  1  2  2  0
  2  3  1  0
  3  4  2  0
  4  5  1  0
  5  6  2  0
  6  7  1  0
  7  8  2  0
  8  9  1  0
  9 10  1  0
 10 11  2  0
 10 12  1  0
 12 13  2  0
 13 14  1  0
 14 15  1  0
 14 16  1  0
 14 17  1  0
 13 18  1  0
 18 19  2  0
 19 20  1  0
 20 21  1  0
 21 22  1  0
 22 23  2  0
 22 24  2  0
 22 25  1  0
 25 26  2  0
 26 27  1  0
 27 28  2  0
 28 29  1  0
 29 30  2  0
 20 31  2  0
 31 32  1  0
  8  3  1  0
 31 12  1  0
 30 25  1  0
  1 33  1  0
  1 34  1  0
  2 35  1  0
  4 36  1  0
  5 37  1  0
  6 38  1  0
  7 39  1  0
  9 40  1  0
 18 41  1  0
 19 42  1  0
 21 43  1  0
 21 44  1  0
 26 45  1  0
 27 46  1  0
 28 47  1  0
 29 48  1  0
 30 49  1  0
M  END
$$$$

     RDKit          3D

 49 51  0  0  0  0  0  0  0  0999 V2000
  126.6290  115.6780  132.4490 C   0  0  0  0  0  0  0  0  0  0  0  0
  127.7140  116.3560  132.0560 C   0  0  0  0  0  0  0  0  0  0  0  0
  128.8160  115.7110  131.3260 C   0  0  0  0  0  0  0  0  0  0  0  0
  128.5230  114.5030  130.6730 C   0  0  0  0  0  0  0  0  0  0  0  0
  129.5090  113.8250  129.9610 C   0  0  0  0  0  0  0  0  0  0  0  0
  130.7960  114.3490  129.8970 C   0  0  0  0  0  0  0  0  0  0  0  0
  131.1010  115.5520  130.5420 C   0  0  0  0  0  0  0  0  0  0  0  0
  130.1220  116.2500  131.2600 C   0  0  0  0  0  0  0  0  0  0  0  0
  130.3890  117.4740  131.9230 N   0  0  0  0  0  0  0  0  0  0  0  0
  131.5250  118.2510  131.8480 C   0  0  0  0  0  0  0  0  0  0  0  0
  132.5210  118.0430  131.1700 O   0  0  0  0  0  0  0  0  0  0  0  0
  131.5230  119.4770  132.6910 C   0  0  0  0  0  0  0  0  0  0  0  0
  131.8150  120.7370  132.1380 C   0  0  0  0  0  0  0  0  0  0  0  0
  132.2480  120.9070  130.6990 C   0  0  0  0  0  0  0  0  0  0  0  0
  133.5340  120.5290  130.4690 F   0  0  0  0  0  0  0  0  0  0  0  0
  131.4560  120.2520  129.8120 F   0  0  0  0  0  0  0  0  0  0  0  0
  132.2030  122.2190  130.3110 F   0  0  0  0  0  0  0  0  0  0  0  0
  131.7100  121.8750  132.9630 C   0  0  0  0  0  0  0  0  0  0  0  0
  131.3340  121.7670  134.3040 C   0  0  0  0  0  0  0  0  0  0  0  0
  131.0550  120.5160  134.8590 C   0  0  0  0  0  0  0  0  0  0  0  0
  130.6100  120.3790  136.2900 C   0  0  0  0  0  0  0  0  0  0  0  0
  128.8660  119.9970  136.3890 S   0  0  0  0  0  6  0  0  0  0  0  0
  128.2470  120.3250  135.1170 O   0  0  0  0  0  0  0  0  0  0  0  0
  128.3570  120.5870  137.6140 O   0  0  0  0  0  0  0  0  0  0  0  0
  128.7870  118.2330  136.5940 C   0  0  0  0  0  0  0  0  0  0  0  0
  129.6180  117.6040  137.5270 C   0  0  0  0  0  0  0  0  0  0  0  0
  129.5220  116.2250  137.7060 C   0  0  0  0  0  0  0  0  0  0  0  0
  128.6160  115.4830  136.9470 C   0  0  0  0  0  0  0  0  0  0  0  0
  127.8100  116.1130  135.9980 C   0  0  0  0  0  0  0  0  0  0  0  0
  127.8970  117.4930  135.8130 C   0  0  0  0  0  0  0  0  0  0  0  0
  131.1630  119.3840  134.0420 C   0  0  0  0  0  0  0  0  0  0  0  0
  130.8990  118.1860  134.5890 F   0  0  0  0  0  0  0  0  0  0  0  0
  125.8247  116.1948  132.9932 H   0  0  0  0  0  0  0  0  0  0  0  0
  126.5415  114.6040  132.2278 H   0  0  0  0  0  0  0  0  0  0  0  0
  127.7838  117.4294  132.2862 H   0  0  0  0  0  0  0  0  0  0  0  0
  127.5054  114.0885  130.7244 H   0  0  0  0  0  0  0  0  0  0  0  0
  129.2713  112.8795  129.4515 H   0  0  0  0  0  0  0  0  0  0  0  0
  131.5774  113.8148  129.3366 H   0  0  0  0  0  0  0  0  0  0  0  0
  132.1229  115.9550  130.4846 H   0  0  0  0  0  0  0  0  0  0  0  0
  129.6210  117.8250  132.4840 H   0  0  0  0  0  0  0  0  0  0  0  0
  131.9285  122.8677  132.5426 H   0  0  0  0  0  0  0  0  0  0  0  0
  131.2573  122.6712  134.9257 H   0  0  0  0  0  0  0  0  0  0  0  0
  131.1824  119.5705  136.7682 H   0  0  0  0  0  0  0  0  0  0  0  0
  130.7876  121.3353  136.8038 H   0  0  0  0  0  0  0  0  0  0  0  0
  130.3398  118.1915  138.1134 H   0  0  0  0  0  0  0  0  0  0  0  0
  130.1610  115.7212  138.4462 H   0  0  0  0  0  0  0  0  0  0  0  0
  128.5368  114.3962  137.0976 H   0  0  0  0  0  0  0  0  0  0  0  0
  127.1055  115.5210  135.3953 H   0  0  0  0  0  0  0  0  0  0  0  0
  127.2708  117.9931  135.0595 H   0  0  0  0  0  0  0  0  0  0  0  0
  1  2  2  0
  2  3  1  0
  3  4  2  0
  4  5  1  0
  5  6  2  0
  6  7  1  0
  7  8  2  0
  8  9  1  0
  9 10  1  0
 10 11  2  0
 10 12  1  0
 12 13  2  0
 13 14  1  0
 14 15  1  0
 14 16  1  0
 14 17  1  0
 13 18  1  0
 18 19  2  0
 19 20  1  0
 20 21  1  0
 21 22  1  0
 22 23  2  0
 22 24  2  0
 22 25  1  0
 25 26  2  0
 26 27  1  0
 27 28  2  0
 28 29  1  0
 29 30  2  0
 20 31  2  0
 31 32  1  0
  8  3  1  0
 31 12  1  0
 30 25  1  0
  1 33  1  0
  1 34  1  0
  2 35  1  0
  4 36  1  0
  5 37  1  0
  6 38  1  0
  7 39  1  0
  9 40  1  0
 18 41  1  0
 19 42  1  0
 21 43  1  0
 21 44  1  0
 26 45  1  0
 27 46  1  0
 28 47  1  0
 29 48  1  0
 30 49  1  0
M  END
$$$$

